<?xml version="1.0" encoding="UTF-8"?>

<!-- generated on 2025-11-09 22:05:47.634449 by randomTrips.py v1_24_0+0000-b72eb3fabc8
<configuration>
    <net-file value="net\marchtrenk_clean2.net.xml"/>
    <route-file value="demand\background_cars.trips.xml"/>
    <prefix value="bgc_"/>
    <trip-attributes value="type=&quot;car_default&quot;"/>
    <seed value="1"/>
    <end value="7200.0"/>
    <period value="2.1"/>
</configuration>
-->

<!-- generated on 2025-11-09 22:05:47 by Eclipse SUMO duarouter Version 1.24.0
<duarouterConfiguration xmlns:xsi="http://www.w3.org/2001/XMLSchema-instance" xsi:noNamespaceSchemaLocation="http://sumo.dlr.de/xsd/duarouterConfiguration.xsd">

    <input>
        <net-file value="net\marchtrenk_clean2.net.xml"/>
        <route-files value="trips.trips.xml"/>
    </input>

    <output>
        <output-file value="demand\background_cars.trips.xml"/>
        <alternatives-output value="NUL"/>
    </output>

    <time>
        <begin value="0.0"/>
        <end value="7200.0"/>
    </time>

    <report>
        <no-warnings value="true"/>
        <ignore-errors value="true"/>
        <no-step-log value="true"/>
    </report>

</duarouterConfiguration>
-->

<routes xmlns:xsi="http://www.w3.org/2001/XMLSchema-instance" xsi:noNamespaceSchemaLocation="http://sumo.dlr.de/xsd/routes_file.xsd">
    <vehicle id="bgc_0" type="car_default" depart="0.00">
        <route edges="-237132924 -406853548 -406853545 -406853546 -156803982#1 E9 E8 -406853547 -156803987 -324877658 -324877656 -324877657 -156803992#1 -156803992#0 -324877659 -156803989 -314039202#1 -314039202#0 -23656293 23713919 217460930#0 E5 -314039227#3 -314039227#1 -314039227#0 -23755647#1 E27 E29 E28 23755647#1 314039227#0 314039227#1 314039227#2"/>
    </vehicle>
    <vehicle id="bgc_1" type="car_default" depart="2.10">
        <route edges="29363538#9 29363538#11 29363538#13 -29363538#13 -29363538#12 -29363538#10 26578873#0 26578873#1 237132909#0 237132917#2 237132904 -237132920#2 E20 E19 -237132920#1 E23 237132911 -406853548 -406853545 -406853546 -156803982#1 E9 E8 -406853547 -156803987 156803977#0 156803977#1 E36 1350860320#1 1350860316#1 1350860316#3 -29366773#2 -29366773#1"/>
    </vehicle>
    <vehicle id="bgc_2" type="car_default" depart="4.20">
        <route edges="1221422824#4 1221422824#5 1221422824#6 312137767#3 312137767#0 312137767#1 23755649#0 23755649#1 57141200#0 314035993 57737039 E13 -314035731 -406853549 -237132921 -237132922 -237132923 -237132924 -406853548 -406853545 -406853546 -156803982#1 E9 E8 -406853547 -156803987 -324877658 -324877656 -324877657 -156803992#1 -156803992#0 -324877659 -156803989 -314039202#1 -314039202#0 -23656293 23713919 217460930#0 E5 -314039227#3 -314039227#1 -314039227#0 -23755647#1 E27 E29 -23755647#0 -1351019168 -558869958#1 E30 E33 -558869958#0 -150798464#3 -150798464#1 -150798464#0 -879391733 -23711988#1 113607625#0 113607625#1"/>
    </vehicle>
    <vehicle id="bgc_3" type="car_default" depart="6.30">
        <route edges="237132918 406853542 237132921 406853549 314035731 E12 E11 E10 E13 -314035731 -406853549 -237132921 -237132922 -237132923 -237132924 -406853548 -406853545 -406853546 -156803982#1 E9 E8 -406853547 -156803987 -324877658 -324877656 -324877657 -156803992#1 -156803992#0 -324877659 -156803989 -314039202#1 -29366728#4 29366728#4"/>
    </vehicle>
    <vehicle id="bgc_4" type="car_default" depart="8.40">
        <route edges="-174967686#4 -174967686#3 -191185979#5 -191185979#3 -191185979#2 -191185979#1 174967684#2 57116095 312137767#0 -1212551598#3 -1212551598#2"/>
    </vehicle>
    <vehicle id="bgc_5" type="car_default" depart="10.50">
        <route edges="314035994#1 314035994#2 314035994#3 -314035994#3 -314035994#2 -314035994#1 E24 -314035994#0 -1212551596 -314035992 E11 E10 E13 -314035731 -406853549 -237132921 -237132922 23755645 E21 237132920#1 E18 237132920#2 237132907 237132917#4 237132910 -975337161#1"/>
    </vehicle>
    <vehicle id="bgc_6" type="car_default" depart="12.60">
        <route edges="29363538#8 26578873#0 26578873#1 237132909#0 237132917#2 237132904 -237132920#2 E20 E19 -237132920#1 E23 237132911 -406853548 -406853545 -406853546 -156803982#1 E9 E8 -406853547 -156803987 -324877658 -324877656 -324877657 -156803992#1 -156803992#0 -324877659 -156803989 -314039202#1 -314039202#0 -23656293 23713919 217460930#0 E5 -314039227#3 -314039227#1 -314039227#0 -23755647#1 E27 E29 -23755647#0 -1351019168 -558869958#1 E30 E33 -558869958#0 -150798464#3 -150798464#1 -150798464#0 -879391733 -23711988#1 113607625#0 -113607625#0"/>
    </vehicle>
    <vehicle id="bgc_7" type="car_default" depart="14.70">
        <route edges="-975337161#0 -237132914#1 406853540 237132918 406853542 237132921 406853549 314035731 E12 E11 E10 -57737039 -314035993 -57141200#1 -23755649#1 -23755649#0 312137767#2 312137767#3 -57116095 -174967684#2 -174967684#1 26242405#0"/>
    </vehicle>
    <vehicle id="bgc_8" type="car_default" depart="16.80">
        <route edges="-29366288#1 29366288#0 513169634#1 E14 E17 558918832#1 206900065#0 E1 E0 E5 -314039227#3 -314039227#1 -314039227#0 -23755647#1 E27 557929943#0 557929943#1"/>
    </vehicle>
    <vehicle id="bgc_9" type="car_default" depart="18.90">
        <route edges="406853543#0 398287564#0 398287564#1 398287564#2 29366556#0 1212551598#2 1212551598#3 312137767#1 312137767#2 312137767#3 312137767#0 -1212551598#3"/>
    </vehicle>
    <vehicle id="bgc_10" type="car_default" depart="21.00">
        <route edges="-1212551596 -314035992 E11 E10 -57737039 -314035993 -57141200#1 -23755649#1 -23755649#0 312137767#2 312137767#3 -57116095 -174967684#2 -174967684#1 -174967684#0 29363538#0 -29363538#0 174967684#0"/>
    </vehicle>
    <vehicle id="bgc_11" type="car_default" depart="23.10">
        <route edges="513169636#1 -513169636#1 -513169636#0"/>
    </vehicle>
    <vehicle id="bgc_12" type="car_default" depart="25.20">
        <route edges="-29363538#10 26578873#0 26578873#1 237132909#0 237132917#2 237132904 -237132920#2 E20 E19 -237132920#1 E23 237132911 -406853548 -406853545 -406853546 -156803982#1 E9 E8 -406853547 -156803987 -324877658 -324877656 -324877657 -156803992#1 -156803992#0 -324877659 -156803989 -314039202#1 -314039202#0 -23656293 23713919 217460930#0 E5 -314039227#3 -314039227#1 -314039227#0 -23755647#1 E27 E29 -23755647#0 -1351019168 -558869958#1 E30 E33 -558869958#0 558869957 878984947#1 878984947#2 -878984947#3 -878984947#1"/>
    </vehicle>
    <vehicle id="bgc_13" type="car_default" depart="27.30">
        <route edges="-1212551598#2 -29366556#1 -398287564#2 -398287564#1 -398287564#0 406853544#0 237132917#0 237132917#1 237132917#2 237132917#3 237132917#4 237132910 -975337161#1 -975337161#0 -237132914#1 -398287565 -237132915 -428878586#5 -428878586#4 -428878586#3 -428878586#2 -428878586#1 -428878586#0 513169634#0 -29366288#1"/>
    </vehicle>
    <vehicle id="bgc_14" type="car_default" depart="29.40">
        <route edges="-878984947#3 -878984947#1 -878984947#0 558869958#0 E32 E31 558869958#1 1351019168 23755647#0 E28 E27 557929943#0 557929943#1 26242017#6 29366773#0 29366773#1 29366773#2 -79571356 -1350860316#1 -1350860316#0 E38 -1350860320#0 1350860319#0"/>
    </vehicle>
    <vehicle id="bgc_15" type="car_default" depart="31.50">
        <route edges="-29366439 29366696#2 -29366773#1 -29366773#0 -26242017#6 -557929943#1 -557929943#0 E29 E28 23755647#1 314039227#0 314039227#1 314039227#2 E4 E3 E2 -206900065#1 -558918832#1 E16 E15 -558918832#0 -29366288#1 -29366469#1"/>
    </vehicle>
    <vehicle id="bgc_16" type="car_default" depart="33.60">
        <route edges="-29363538#12 -29363538#10 26578873#0 26578873#1 237132909#0 237132917#2 237132904 -237132920#2 E20 E19 -237132920#1 E23 237132911 -406853548 -406853545 -406853546 -156803982#1 E9 E8 -406853547 -156803987 -324877658 -324877656 -324877657 -156803992#1 -156803992#0 -324877659 -156803989 -314039202#1 -314039202#0 -23656293 23713919 217460930#0 E5 -314039227#3 -314039227#1 -314039227#0 -23755647#1 E27 E29 E28 23755647#1 314039227#0 314039227#1 -558918834#1 -558869962#0 113607629#4"/>
    </vehicle>
    <vehicle id="bgc_17" type="car_default" depart="35.70">
        <route edges="-314035730 -324599635 -314035732 E10 E13 -314035731 -406853549 -237132921 -237132922 -237132923 -237132924 -406853548 -406853545 -406853546 -156803982#1 E9 E8 -406853547 -156803987 -324877658 -324877656 -324877657 -156803992#1 -156803992#0 -324877659 -156803989 -314039202#1 -314039202#0 -23656293 23713919 217460930#0 E5 -314039227#3 -314039227#1 -314039227#0 -23755647#1 E27 E29 -23755647#0 -1351019168 -558869958#1 E30 E33 E32 -113607651#1"/>
    </vehicle>
    <vehicle id="bgc_18" type="car_default" depart="37.80">
        <route edges="314035994#2 314035994#3 -314035994#3 -314035994#2 -314035994#1 E24 -314035994#0 -1212551596 -314035992 E11 E10 -57737039 -314035993 -57141200#1 -23755649#1 -23755649#0 312137767#2 312137767#3 -57116095 -174967684#2 191185979#0 191185979#2 191185979#3 191185979#5 174967686#3 174967686#4 174967686#5"/>
    </vehicle>
    <vehicle id="bgc_19" type="car_default" depart="39.90">
        <route edges="237132911 -406853548 -406853545 -406853546 -156803982#1 E9 -24609247#6 -24609247#4 -24609247#3 -24609247#2 -26242019#4"/>
    </vehicle>
    <vehicle id="bgc_20" type="car_default" depart="42.00">
        <route edges="975337161#1 237132905 237132917#6 237132917#7 237132917#0 237132917#1 237132917#2 237132904 -237132920#2 E20 E19 -237132920#1 E23 237132911 -406853548 -406853545 -406853546 -156803982#1 E9 E8 -406853547 -156803987 -324877658 -324877656 -324877657 -156803992#1 -156803992#0 -324877659 -156803989 -314039202#1 -314039202#0 -23656293 23713919 217460930#0 E5 -314039227#3 -314039227#1 -314039227#0 -23755647#1 E27 E29 -23755647#0 -1351019168 -558869958#1 E30 26242018 -26242017#1 -26242017#0 23817553#1 35145512#0"/>
    </vehicle>
    <vehicle id="bgc_21" type="car_default" depart="44.10">
        <route edges="-237132919#5 -237132919#4 -237132919#3 237132909#0 237132917#2 237132917#3 237132917#4 237132910 -975337161#1 -975337161#0 -237132914#1 -398287565"/>
    </vehicle>
    <vehicle id="bgc_22" type="car_default" depart="46.20">
        <route edges="26242019#0 26242019#1"/>
    </vehicle>
    <vehicle id="bgc_23" type="car_default" depart="48.30">
        <route edges="513169636#0 -513169636#0 -878984947#4 -878984947#3 -878984947#1"/>
    </vehicle>
    <vehicle id="bgc_24" type="car_default" depart="50.40">
        <route edges="314035992 57737038 314035994#0 E26 E25 E24 -314035994#0 -1212551596 -314035992 E11 E10 -57737039 -314035993 -57141200#1 -23755649#1 -23755649#0 312137767#2 312137767#3 312137767#0 312137767#1 23755649#0 23755649#1"/>
    </vehicle>
    <vehicle id="bgc_25" type="car_default" depart="52.50">
        <route edges="-314035994#1 E24 -314035994#0 -1212551596 -314035992 E11 E10 E13 -314035731 -406853549 -237132921 -237132922 -237132923 -237132924 -406853548 -406853545 -406853546 -156803982#1 E9 E8 -406853547 -156803987 -324877658 -324877656 -324877657 -156803992#1 -156803992#0 -324877659 -156803989 -314039202#1 -314039202#0 -23656293 23713919 217460930#0 E5 E4 217460934#0 217460907"/>
    </vehicle>
    <vehicle id="bgc_26" type="car_default" depart="54.60">
        <route edges="398287570#2 -398287570#0 -398287564#0 406853544#0 237132917#0 237132917#1 237132917#2 237132904 -237132920#2 E20 E19 -237132920#1 E23 237132911 -406853548 -406853545 -406853546 -156803982#1 E9 E8 -406853547 -156803987 -324877658 -324877656 -324877657 -156803992#1 -156803992#0 -324877659 -156803989 -314039202#1 -314039202#0 -23656293 23713919 217460930#0 E5 -314039227#3 -314039227#1 -314039227#0 -23755647#1 E27 E29 E28 23755647#1 314039227#0 314039227#1"/>
    </vehicle>
    <vehicle id="bgc_27" type="car_default" depart="56.70">
        <route edges="1350860316#1 -1350860316#1 -1350860316#0 E38 -1350860320#0 1350860319#0 -156803992#0 -324877659 -156803989 -314039202#1 -314039202#0 -23656293 23713919 217460930#0 E5 E4 217460934#0 217460907"/>
    </vehicle>
    <vehicle id="bgc_28" type="car_default" depart="58.80">
        <route edges="-1221422824#3 -1221422824#2 1221422824#2 1221422824#3 1221422824#4 1221422824#5 1221422824#6 312137767#3 312137767#0 312137767#1 23755649#0 23755649#1 57141200#0 314035993 57737039 E13 -314035731 -406853549 -237132921 -237132922 -237132923 -237132924 -406853548 -406853545 -406853546 -156803982#1 E9 E8 -406853547 -156803987 156803977#0 156803977#1 E36 1350860320#1 1350860316#1 1350860316#3 -29366773#2 -29366696#2 -29366696#1"/>
    </vehicle>
    <vehicle id="bgc_29" type="car_default" depart="60.90">
        <route edges="29366773#1 29366773#2 -79571356 -1350860316#1 -1350860316#0 E38 -1350860320#0 1350860319#0 156803992#1 324877657 324877656 324877658 156803987 406853547 E7 1040612423 -26289472#2 -428878586#5 -428878586#4 -617259948#5"/>
    </vehicle>
    <vehicle id="bgc_30" type="car_default" depart="63.00">
        <route edges="-26242017#4 26242019#0 26242019#1 29366696#0 29366696#1 29366696#2 29366773#2 -79571356 -1350860316#1 -1350860316#0 E38 -1350860320#0 1350860319#0 156803992#1 324877657 324877656 324877658 156803987 406853547 E7 E6 156803982#1 406853546 406853545 406853548 237132924 237132923 174952924 237132921 406853549 314035731 E12 E11 E10 -57737039 -314035993 -57141200#1 -23755649#1 -23755649#0 312137767#2 312137767#3 -57116095 -174967684#2 191185979#0 191185979#2 191185979#3 191185979#5 -174967686#2 -174967686#1 174967686#1"/>
    </vehicle>
    <vehicle id="bgc_31" type="car_default" depart="65.10">
        <route edges="26091447#0 26091447#1 1221422824#2 1221422824#3 1221422824#4 1221422824#5 1221422824#6 312137767#3 312137767#0 -1212551598#3 -1212551598#2 23917399#0"/>
    </vehicle>
    <vehicle id="bgc_32" type="car_default" depart="67.20">
        <route edges="-428878586#2 -428878586#1 -428878586#0 -1286176658#1 -27191253 -988295349"/>
    </vehicle>
    <vehicle id="bgc_33" type="car_default" depart="69.30">
        <route edges="1350860316#3 -29366773#2 -29366696#2 -29366696#1 -29366696#0 29366696#0"/>
    </vehicle>
    <vehicle id="bgc_34" type="car_default" depart="71.40">
        <route edges="1352477107 -1352477107 -1350860316#1 -1350860316#0 E38 -1350860320#0 1350860319#0 -156803992#0 -324877659 -156803989 -314039202#1 -314039202#0 -23656293 23713919 217460930#0 E5 -314039227#3 -314039227#1 -314039227#0 -23755647#1 E27 E29 -23755647#0 -1351019168 -558869958#1"/>
    </vehicle>
    <vehicle id="bgc_35" type="car_default" depart="73.50">
        <route edges="1221422824#0 1221422824#2 1221422824#3 1221422824#4 1221422824#5 1221422824#6 312137767#3 312137767#0 -1212551598#3 -1212551598#2"/>
    </vehicle>
    <vehicle id="bgc_36" type="car_default" depart="75.60">
        <route edges="-1283838781 398287565 237132914#1 975337161#0 975337161#1 237132905 237132917#6 237132917#7 237132917#0 237132917#1 237132917#2 237132904 -237132920#2 E20 E19 -237132920#1 E23 237132911 -406853548 -406853545 -406853546 -156803982#1 E9 E8 -406853547 -156803987 -324877658 -324877656 -324877657 -156803992#1 -156803992#0 -324877659 -156803989 -314039202#1 -314039202#0 -23656293 23713919 217460930#0 E5 -314039227#3 -314039227#1 -314039227#0 -23755647#1 E27 557929943#0 557929943#1 -26242017#5 26242017#5"/>
    </vehicle>
    <vehicle id="bgc_37" type="car_default" depart="77.70">
        <route edges="-513169636#0 -878984947#4 -878984947#3 -878984947#1 -878984947#0 558869958#0 E32 E31 558869958#1 1351019168 23755647#0 E28 E27 557929943#0 557929943#1 -26242017#5 -26242017#4"/>
    </vehicle>
    <vehicle id="bgc_38" type="car_default" depart="79.80">
        <route edges="1266487057 -29363538#13 -29363538#12 -29363538#10 26578873#0 26578873#1 237132909#0 237132917#2 237132904 -237132920#2 E20 E19 -237132920#1 E23 237132911 -406853548 -406853545 -406853546 -156803982#1 E9 E8 -406853547 -156803987 -324877658 -324877656 -324877657 -156803992#1 -156803992#0 -324877659 -156803989 -314039202#1 -314039202#0 -23656293 23713919 217460930#0 E5 -314039227#3 -314039227#1 -314039227#0 -23755647#1 E27 E29 -23755647#0 -1351019168 -558869958#1 E30 E33 -558869958#0 -150798464#3 -150798464#1 -150798464#0 -879391733 879391733"/>
    </vehicle>
    <vehicle id="bgc_39" type="car_default" depart="81.90">
        <route edges="29366439 406646743#2 1350872887 -1352477107 -1350860316#1 -1350860316#0 E38 -1350860320#0 1350860319#0 156803992#1 324877657 324877656 324877658 156803987 406853547 E7 E6 156803982#1 406853546 406853545 406853548 237132924 237132923 174952924"/>
    </vehicle>
    <vehicle id="bgc_40" type="car_default" depart="84.00">
        <route edges="324877657 324877656 324877658 156803987 406853547 E7 E6 E9 E8 -406853547 -156803987 -324877658 -324877656 -324877657 -156803992#1 -156803992#0 -324877659 -156803989 -314039202#1 -314039202#0 -23656293 23713919 217460930#0 E5 E4 E3 E2 -206900065#1 -558918832#1 E16 E15 -558918832#0 -513169634#0 -1286176658#1 -29366469#2"/>
    </vehicle>
    <vehicle id="bgc_41" type="car_default" depart="86.10">
        <route edges="1350860320#1 -1350860316#0 E38 -1350860320#0 1350860319#0 -156803992#0 -324877659 -156803989 -314039202#1 -314039202#0 -23656293 23713919 217460930#0 E5 -314039227#3 -314039227#1 -314039227#0 -23755647#1 E27 E29 -23755647#0 -1351019168 -558869958#1 E30 E33 -558869958#0 558869958#0"/>
    </vehicle>
    <vehicle id="bgc_42" type="car_default" depart="88.20">
        <route edges="203556989 217460908 217460925#0 E2 E1 E0 E5 -314039227#3 -314039227#1 -314039227#0 -23755647#1 E27 E29 E28 23755647#1 314039227#0 314039227#1 -558918834#1 -558869962#0 113607629#4"/>
    </vehicle>
    <vehicle id="bgc_43" type="car_default" depart="90.30">
        <route edges="-29366794#1 26242019#1 29366696#0 29366696#1 29366696#2 29366773#2 -79571356 -1350860316#1 -1350860316#0 E38 -1350860320#0 1350860319#0 156803992#1 324877657 324877656 324877658 156803987 406853547 E7 E6 156803982#1 406853546 406853545 406853548 237132924 237132923 174952924 237132921 406853549 314035731 E12 E11 E10 -57737039 -314035993 -57141200#1 -23755649#1 -23755649#0 312137767#2 312137767#3 -57116095 -174967684#2 191185979#0 191185979#2 191185979#3 191185979#5 -174967686#2 -174967686#1 174967686#1"/>
    </vehicle>
    <vehicle id="bgc_44" type="car_default" depart="92.40">
        <route edges="558918834#0 -314039227#1 -314039227#0 -23755647#1 E27 E29 -23755647#0 -1351019168 -558869958#1 E30 E33 -558869958#0 -150798464#3 -150798464#1 -113607625#1"/>
    </vehicle>
    <vehicle id="bgc_45" type="car_default" depart="94.50">
        <route edges="29366696#0 29366696#1 29366696#2 29366773#2 -79571356 -1350860316#1 -1350860316#0 E38 -1350860320#0 1350860319#0 156803992#1 324877657 324877656 324877658 156803987 406853547 E7 E6 156803982#1 406853546 406853545 406853548 237132924 237132923 174952924 237132921 406853549 314035731 E12 E11 314035732 324599635 314035730"/>
    </vehicle>
    <vehicle id="bgc_46" type="car_default" depart="96.60">
        <route edges="406077442#1 878811131 -878811132 -406077442#1 -406077442#0 -513169636#1 -513169636#0 -878984947#4 -878984947#3 -878984947#1 -878984947#0 558869958#0 E32 E31 558869958#1 1351019168 23755647#0 E28 23755647#1 314039227#0 314039227#1 314039227#2 E4 E3 E2 -206900065#1 -558918832#1 E16 E15 -558918832#0 -513169634#0 -1286176658#1 -27191253 -988295349 988295349 27191252"/>
    </vehicle>
    <vehicle id="bgc_47" type="car_default" depart="98.70">
        <route edges="29448148#1 26289472#0 -428878586#5 -428878586#4 -428878586#3 -428878586#2 -428878586#1 -428878586#0 513169634#0 513169634#1 E14 E17 558918832#1 206900065#0 E1 E0 E5 -314039227#3 -314039227#1 -314039227#0 -23755647#1 E27 E29 E28 23755647#1 314039227#0 314039227#1 -558918834#1 -558869962#0 -113607629#3 156660752"/>
    </vehicle>
    <vehicle id="bgc_48" type="car_default" depart="100.80">
        <route edges="174967686#2 -191185979#5 -191185979#3 -191185979#2 -191185979#1 174967684#2 57116095 312137767#0 312137767#1 23755649#0 23755649#1 57141200#0 314035993 57737039 E13 -314035731 -406853549 -237132921 -237132922 -237132923 -237132924 -406853548 -406853545 -406853546 -156803982#1 E9 E8 -406853547 -156803987 -324877658 -324877656 -324877657 -156803992#1 -156803992#0 -324877659 -156803989 -314039202#1 -314039202#0 -23656293 23713919 217460930#0 E5 -314039227#3 -314039227#1 -314039227#0 -23755647#1 E27 E29 -23755647#0 -1351019168 -558869958#1 E30 E33 -558869958#0 558869957 878984947#1 878984947#2 878984947#4 513169636#0 -513169636#0 -878984947#4"/>
    </vehicle>
    <vehicle id="bgc_49" type="car_default" depart="102.90">
        <route edges="-1351019168 -558869958#1 E30 E33 E32 E31 558869958#1 1351019168 23755647#0 E28 23755647#1 314039227#0 314039227#1 314039227#2 E4 E3 E2 E1 217460932#0 883759436 23656293 314039202#0 314039202#1 156803989 324877655 156803992#0 156803992#1 324877657 324877656 324877658 156803987 406853547 E7 E6 156803982#1 406853546 406853545 406853548 237132924 237132916 -237132918 406853541 237132914#1 975337161#0 975337161#1 237132905 237132917#6 406853543#0 398287564#0 398287564#1 398287564#2 398287564#3"/>
    </vehicle>
    <vehicle id="bgc_50" type="car_default" depart="105.00">
        <route edges="191185979#2 191185979#3 191185979#5 -191185979#5 -191185979#3 -191185979#2 -191185979#1 174967684#2 57116095 312137767#0 -1212551598#3 -1212551598#2 -1212551598#0 -237132919#5 -237132919#4 -237132919#3 -26578873#2"/>
    </vehicle>
    <vehicle id="bgc_51" type="car_default" depart="107.10">
        <route edges="1286176658#0 513169634#0 513169634#1 E14 E17 558918832#1 206900065#0 E1 217460932#0 883759436 23656293 314039202#0 314039202#1 156803989 324877655 156803992#0 156803992#1 324877657 324877656 324877658 156803987 406853547 E7 E6 156803982#1 406853546 406853545 406853548 237132924 237132923 174952924 237132921 406853549 314035731 E12 E11 E10 -57737039 -314035993 -57141200#1 -23755649#1 -23755649#0 312137767#2 -1221422824#6 -1221422824#5 -1221422824#4 1221422824#4 1221422824#5 1221422824#6"/>
    </vehicle>
    <vehicle id="bgc_52" type="car_default" depart="109.20">
        <route edges="-406646743#1"/>
    </vehicle>
    <vehicle id="bgc_53" type="car_default" depart="111.30">
        <route edges="156803987 406853547 E7 E6 156803982#1 406853546 406853545 406853548 237132924 237132923 174952924 -237132922 23755645 E21 237132920#1 E18 237132920#2 237132907"/>
    </vehicle>
    <vehicle id="bgc_54" type="car_default" depart="113.40">
        <route edges="-1212551598#0 -237132919#5 -237132919#4 -237132919#3 237132909#0 237132917#2 237132917#3 237132917#4 237132910 -975337161#1 -975337161#0 -237132914#1 -398287565 -237132915 -428878586#5 -428878586#4 -428878586#3 -428878586#2 -428878586#1 -428878586#0 513169634#0 -29366288#1 -29366469#1"/>
    </vehicle>
    <vehicle id="bgc_55" type="car_default" depart="115.50">
        <route edges="-26242018 E33 E32 E31 558869958#1 1351019168 23755647#0 E28 23755647#1 314039227#0 314039227#1 314039227#2 E4 217460934#0 217460907 203556988#0 102408517 217460903 213842719 217461037#1-AddedOnRampEdge 217461037#1 213845231 213845235"/>
    </vehicle>
    <vehicle id="bgc_56" type="car_default" depart="117.60">
        <route edges="324877657 324877656 324877658 156803987 406853547 E7 E6 E9 E8 -406853547 -156803987 156803977#0 156803977#1 E36 1350860320#1 1350860316#1 1350860316#3 -29366773#2 -29366696#2 -29366696#1 -29366696#0 -26242019#1 -29366794#0 29366794#0"/>
    </vehicle>
    <vehicle id="bgc_57" type="car_default" depart="119.70">
        <route edges="29366773#1 29366773#2 -79571356 -1350860316#1 -1350860316#0 E38 -1350860320#0 1350860319#0 156803992#1 324877657 324877656 324877658 156803987 406853547 E7 E6 156803982#1 406853546 406853545 406853548 237132924 237132916 -237132918 406853541 -398287565 406853538#0 -29448148#7 29448148#7"/>
    </vehicle>
    <vehicle id="bgc_58" type="car_default" depart="121.80">
        <route edges="-29366728#3 E17 558918832#1 206900065#0 E1 217460932#0 883759436 23656293 314039202#0 314039202#1"/>
    </vehicle>
    <vehicle id="bgc_59" type="car_default" depart="123.90">
        <route edges="23713932 203556989 217460908 217460925#0 E2 E1 217460932#0 883759436 23656293 314039202#0 314039202#1 156803989 324877655 156803992#0 156803992#1 324877657 324877656 324877658 156803987 406853547 E7 E6 156803982#1 406853546 406853545 406853548 237132924 237132923 174952924 237132921 406853549 314035731 E12 E11 E10 -57737039 -314035993 -57141200#1 -23755649#1 -23755649#0 312137767#2 312137767#3 -57116095 -174967684#2"/>
    </vehicle>
    <vehicle id="bgc_60" type="car_default" depart="126.00">
        <route edges="-113607644#0 -113607625#0 23711988#1 879391733 150798464#0 150798464#1 150798464#3 558869958#0 E32 -113607651#1 -113607637#0"/>
    </vehicle>
    <vehicle id="bgc_61" type="car_default" depart="128.10">
        <route edges="29363538#11 29363538#13 -29363538#13 -29363538#12 -29363538#10 26578873#0 26578873#1 237132909#0 237132917#2 237132904 -237132920#2 E20 E19 -237132920#1 E23 237132911 -406853548 -406853545 -406853546 -156803982#1 E9 E8 -406853547 -156803987 -324877658 -324877656 -324877657 -156803992#1 -156803992#0 -324877659 -156803989 -314039202#1 -29366728#4"/>
    </vehicle>
    <vehicle id="bgc_62" type="car_default" depart="130.20">
        <route edges="-23711988#1 113607625#0 -113607625#0 23711988#1 879391733 150798464#0 150798464#1 150798464#3 558869958#0 E32 E31 558869958#1 1351019168 23755647#0 E28 23755647#1 314039227#0 314039227#1 314039227#2 E4 E3 E2 E1 217460932#0 883759436 23656293 314039202#0 314039202#1 156803989 324877655 156803992#0 156803992#1 324877657 324877656 324877658 156803987 406853547 E7 E6 156803982#1 406853546 406853545 406853548 237132924 237132916 -237132918 406853541 237132914#1 975337161#0 975337161#1 237132905 237132917#6 237132917#7 237132917#0 237132906#0 -26578873#2 26578873#1 237132909#0"/>
    </vehicle>
    <vehicle id="bgc_63" type="car_default" depart="132.30">
        <route edges="-398287570#0 -398287564#0 406853544#0 237132917#0 237132917#1 237132917#2 237132904 -237132920#2 E20 E19 -237132920#1 E23 237132911 -406853548 -406853545 -406853546 -156803982#1"/>
    </vehicle>
    <vehicle id="bgc_64" type="car_default" depart="134.40">
        <route edges="-24609247#6 -24609247#4 24609247#4 24609247#5 E8 -406853547 -156803987 156803977#0 531863850#0 1350860319#0 156803992#1 324877657 324877656 324877658 156803987"/>
    </vehicle>
    <vehicle id="bgc_65" type="car_default" depart="136.50">
        <route edges="-26242017#1 -26242017#0 23817553#1 35145512#0 879391733 150798464#0 150798464#1 150798464#3 558869958#0 E32 E31 558869958#1 1351019168 23755647#0 E28 23755647#1 314039227#0 314039227#1 314039227#2 E4 E3 E2 E1 217460932#0 883759436 23656293 314039202#0 314039202#1 156803989 324877655 156803992#0 156803992#1 324877657 324877656 324877658 156803987 406853547 E7 1040612423 -26289472#2 -26289472#1 29448148#2 29448148#3 -29448148#3"/>
    </vehicle>
    <vehicle id="bgc_66" type="car_default" depart="138.60">
        <route edges="26242017#3 26242017#4 26242017#5 -557929943#1 -557929943#0 E29 E28 23755647#1 314039227#0 314039227#1 -558918834#1 -558869962#0 -113607629#3 156660752 113607629#1"/>
    </vehicle>
    <vehicle id="bgc_67" type="car_default" depart="140.70">
        <route edges="-324877657 -156803992#1 -156803992#0 -324877659 -156803989 -314039202#1 314039202#1 156803989 324877655 156803992#0 156803992#1 324877657 324877656 324877658 156803987 406853547 E7 E6 156803982#1 406853546 406853545 406853548 237132924 237132916 -237132918 406853541 237132914#1 975337161#0 975337161#1 237132905 237132917#6 406853543#0 398287564#0 398287564#1 398287564#2 29366556#0 1212551598#2"/>
    </vehicle>
    <vehicle id="bgc_68" type="car_default" depart="142.80">
        <route edges="-1212043112 -23917399#3 -23917399#2 -23917399#1 -23917399#0 -29366556#1 -398287564#2 -398287564#1 -398287564#0 406853544#0 237132917#0 237132917#1 237132917#2 237132904 -237132920#2 E20 E19 -237132920#1 E23 237132911 -406853548 -406853545 -406853546 -156803982#1 E9 E8 -406853547 -156803987 -324877658 -324877656 -324877657 -156803992#1 -156803992#0 -324877659 -156803989 -314039202#1 -314039202#0 -23656293 23713919 217460930#0 E5 -314039227#3 -314039227#1 -314039227#0 -23755647#1 E27 557929943#0 557929943#1 -557929943#1"/>
    </vehicle>
    <vehicle id="bgc_69" type="car_default" depart="144.90">
        <route edges="-57737039 -314035993 -57141200#1 -23755649#1 -23755649#0 312137767#2 312137767#3 -57116095 -174967684#2 191185979#0 191185979#2 191185979#3 191185979#5 -174967686#2 -174967686#1 -26242405#2 -26242405#1"/>
    </vehicle>
    <vehicle id="bgc_70" type="car_default" depart="147.00">
        <route edges="-23711988#1 113607625#0 -113607625#0 23711988#1 879391733 150798464#0 150798464#1 150798464#3 558869958#0 E32 E31 558869958#1 1351019168 23755647#0 E28 23755647#1 314039227#0 314039227#1 314039227#2 E4 E3 E2 E1 217460932#0 883759436 23656293 314039202#0 314039202#1 156803989 324877655 156803992#0 156803992#1 324877657 324877656 324877658 156803987 406853547 E7 E6 156803982#1 406853546 406853545 406853548 237132924 237132916 -237132918 406853541 237132914#1 975337161#0 975337161#1 237132905 237132917#6 406853543#0"/>
    </vehicle>
    <vehicle id="bgc_71" type="car_default" depart="149.10">
        <route edges="1350860319#0 156803992#1 324877657 324877656 324877658 156803987 406853547 E7 E6 156803982#1 406853546 406853545 406853548 237132924 237132916 -237132918 406853541 237132914#1 975337161#0 975337161#1 237132905 237132917#6 237132917#7 237132917#0 237132906#0 -26578873#2 -26578873#0 -29363538#8 -29363538#7 -29363538#4 -29363538#1"/>
    </vehicle>
    <vehicle id="bgc_72" type="car_default" depart="151.20">