<?xml version="1.0" encoding="UTF-8"?>

<!-- generated on 2025-11-09 20:30:00 by Eclipse SUMO netedit Version 1.24.0
<neteditConfiguration xmlns:xsi="http://www.w3.org/2001/XMLSchema-instance" xsi:noNamespaceSchemaLocation="http://sumo.dlr.de/xsd/neteditConfiguration.xsd">

    <input>
        <sumo-net-file value="C:\projects\traffic-simulation-group\net\marchtrenk_clean2.net.xml"/>
    </input>

    <output>
        <output-file value="C:\projects\traffic-simulation-group\net\marchtrenk_clean2.net.xml"/>
    </output>

    <processing>
        <geometry.min-radius.fix.railways value="false"/>
        <geometry.avoid-overlap value="false"/>
        <geometry.max-grade.fix value="false"/>
        <offset.disable-normalization value="true"/>
        <lefthand value="0"/>
    </processing>

    <junctions>
        <no-turnarounds value="true"/>
        <junctions.corner-detail value="5"/>
        <junctions.limit-turn-speed value="5.50"/>
        <rectangular-lane-cut value="0"/>
    </junctions>

    <pedestrian>
        <walkingareas value="0"/>
    </pedestrian>

</neteditConfiguration>
-->

<net version="1.20" junctionCornerDetail="5" limitTurnSpeed="5.50" avoidOverlap="0" xmlns:xsi="http://www.w3.org/2001/XMLSchema-instance" xsi:noNamespaceSchemaLocation="http://sumo.dlr.de/xsd/net_file.xsd">

    <location netOffset="-431609.26,-5336873.88" convBoundary="0.00,69.99,2800.68,1478.50" origBoundary="13.959524,48.124371,14.234159,48.237101" projParameter="+proj=utm +zone=33 +ellps=WGS84 +datum=WGS84 +units=m +no_defs"/>

    <type id="highway.motorway" priority="14" numLanes="2" speed="39.44" allow="private emergency authority army vip passenger hov taxi bus coach delivery truck trailer motorcycle evehicle custom1 custom2" oneway="1"/>
    <type id="highway.motorway_link" priority="9" numLanes="1" speed="22.22" allow="private emergency authority army vip passenger hov taxi bus coach delivery truck trailer motorcycle evehicle custom1 custom2" oneway="1"/>
    <type id="highway.primary" priority="12" numLanes="2" speed="27.78" disallow="tram rail_urban rail rail_electric rail_fast ship container cable_car subway aircraft wheelchair scooter drone" oneway="0"/>
    <type id="highway.primary_link" priority="7" numLanes="1" speed="22.22" disallow="tram rail_urban rail rail_electric rail_fast ship container cable_car subway aircraft wheelchair scooter drone" oneway="0"/>
    <type id="highway.residential" priority="3" numLanes="1" speed="13.89" disallow="tram rail_urban rail rail_electric rail_fast ship container cable_car subway aircraft wheelchair scooter drone" oneway="0"/>
    <type id="highway.service" priority="1" numLanes="1" speed="5.56" allow="pedestrian delivery bicycle" oneway="0"/>
    <type id="highway.tertiary" priority="10" numLanes="1" speed="22.22" disallow="tram rail_urban rail rail_electric rail_fast ship container cable_car subway aircraft wheelchair scooter drone" oneway="0"/>
    <type id="highway.unclassified" priority="4" numLanes="1" speed="13.89" disallow="tram rail_urban rail rail_electric rail_fast ship container cable_car subway aircraft wheelchair scooter drone" oneway="0"/>

    <edge id=":1104446887_0" function="internal">
        <lane id=":1104446887_0_0" index="0" disallow="tram rail_urban rail rail_electric rail_fast ship container cable_car subway aircraft wheelchair scooter drone" speed="13.89" length="0.27" shape="2456.11,1310.27 2456.01,1310.52"/>
    </edge>
    <edge id=":1104446887_1" function="internal">
        <lane id=":1104446887_1_0" index="0" disallow="tram rail_urban rail rail_electric rail_fast ship container cable_car subway aircraft wheelchair scooter drone" speed="3.65" length="2.34" shape="2456.11,1310.27 2454.92,1311.09 2454.03,1311.16"/>
    </edge>
    <edge id=":1104446887_4" function="internal">
        <lane id=":1104446887_4_0" index="0" disallow="tram rail_urban rail rail_electric rail_fast ship container cable_car subway aircraft wheelchair scooter drone" speed="3.65" length="2.34" shape="2454.03,1311.16 2453.43,1310.49 2453.14,1309.08"/>
    </edge>
    <edge id=":1104446887_2" function="internal">
        <lane id=":1104446887_2_0" index="0" disallow="tram rail_urban rail rail_electric rail_fast ship container cable_car subway aircraft wheelchair scooter drone" speed="13.89" length="0.31" shape="2453.02,1309.37 2453.14,1309.08"/>
    </edge>
    <edge id=":1104446887_3" function="internal">
        <lane id=":1104446887_3_0" index="0" disallow="tram rail_urban rail rail_electric rail_fast ship container cable_car subway aircraft wheelchair scooter drone" speed="3.65" length="2.34" shape="2453.02,1309.37 2454.20,1308.54 2455.09,1308.45"/>
    </edge>
    <edge id=":1104446887_5" function="internal">
        <lane id=":1104446887_5_0" index="0" disallow="tram rail_urban rail rail_electric rail_fast ship container cable_car subway aircraft wheelchair scooter drone" speed="3.65" length="2.34" shape="2455.09,1308.45 2455.70,1309.11 2456.01,1310.52"/>
    </edge>
    <edge id=":1142062940_0" function="internal">
        <lane id=":1142062940_0_0" index="0" disallow="tram rail_urban rail rail_electric rail_fast ship container cable_car subway aircraft wheelchair scooter drone" speed="3.65" length="4.67" shape="2433.78,216.75 2435.13,216.24 2436.01,216.38 2436.43,217.17 2436.38,218.61"/>
    </edge>
    <edge id=":11763121825_0" function="internal">
        <lane id=":11763121825_0_0" index="0" disallow="tram rail_urban rail rail_electric rail_fast ship container cable_car subway aircraft wheelchair scooter drone" speed="8.33" length="2.11" shape="1778.62,1112.60 1776.59,1113.20"/>
    </edge>
    <edge id=":11763121825_1" function="internal">
        <lane id=":11763121825_1_0" index="0" disallow="tram rail_urban rail rail_electric rail_fast ship container cable_car subway aircraft wheelchair scooter drone" speed="3.65" length="4.67" shape="1778.62,1112.60 1777.39,1113.37 1776.50,1113.40 1775.93,1112.71 1775.70,1111.28"/>
    </edge>
    <edge id=":12497687040_0" function="internal">
        <lane id=":12497687040_0_0" index="0" disallow="tram rail_urban rail rail_electric rail_fast ship container cable_car subway aircraft wheelchair scooter drone" speed="6.91" length="5.09" shape="1430.57,933.44 1430.33,932.15 1429.83,931.02 1429.07,930.04 1428.05,929.22"/>
    </edge>
    <edge id=":12497687040_1" function="internal">
        <lane id=":12497687040_1_0" index="0" disallow="tram rail_urban rail rail_electric rail_fast ship container cable_car subway aircraft wheelchair scooter drone" speed="3.65" length="4.67" shape="1430.57,933.44 1431.27,932.17 1432.03,931.71 1432.86,932.04 1433.76,933.16"/>
    </edge>
    <edge id=":12497687040_2" function="internal">
        <lane id=":12497687040_2_0" index="0" disallow="tram rail_urban rail rail_electric rail_fast ship container cable_car subway aircraft wheelchair scooter drone" speed="7.81" length="5.40" shape="1435.19,928.10 1434.47,929.16 1433.99,930.36 1433.75,931.70 1433.76,933.16"/>
    </edge>
    <edge id=":12497687040_3" function="internal">
        <lane id=":12497687040_3_0" index="0" disallow="tram rail_urban rail rail_electric rail_fast ship container cable_car subway aircraft wheelchair scooter drone" speed="5.56" length="8.03" shape="1435.19,928.10 1433.56,929.56 1431.83,930.24 1429.99,930.12 1428.05,929.22"/>
    </edge>
    <edge id=":12497687052_0" function="internal">
        <lane id=":12497687052_0_0" index="0" disallow="tram rail_urban rail rail_electric rail_fast ship container cable_car subway aircraft wheelchair scooter drone" speed="13.89" length="11.17" shape="1432.43,955.30 1431.48,944.17"/>
    </edge>
    <edge id=":12497687052_1" function="internal">
        <lane id=":12497687052_1_0" index="0" disallow="tram rail_urban rail rail_electric rail_fast ship container cable_car subway aircraft wheelchair scooter drone" speed="6.51" length="9.01" shape="1440.71,948.97 1438.31,949.54 1436.65,950.73 1435.76,952.56 1435.62,955.02"/>
    </edge>
    <edge id=":12497687052_2" function="internal">
        <lane id=":12497687052_2_0" index="0" disallow="tram rail_urban rail rail_electric rail_fast ship container cable_car subway aircraft wheelchair scooter drone" speed="7.31" length="11.71" shape="1440.71,948.97 1436.85,948.96 1434.03,948.16 1432.24,946.56 1431.48,944.17"/>
    </edge>
    <edge id=":12497687052_3" function="internal">
        <lane id=":12497687052_3_0" index="0" disallow="tram rail_urban rail rail_electric rail_fast ship container cable_car subway aircraft wheelchair scooter drone" speed="13.89" length="11.17" shape="1434.67,943.90 1435.62,955.02"/>
    </edge>
    <edge id=":12497687058_0" function="internal">
        <lane id=":12497687058_0_0" index="0" disallow="tram rail_urban rail rail_electric rail_fast ship container cable_car subway aircraft wheelchair scooter drone" speed="12.50" length="25.26" shape="1423.44,926.22 1419.18,924.66 1413.15,923.93 1406.03,923.86 1398.51,924.23"/>
    </edge>
    <edge id=":12497687058_1" function="internal">
        <lane id=":12497687058_1_0" index="0" disallow="tram rail_urban rail rail_electric rail_fast ship container cable_car subway aircraft wheelchair scooter drone" speed="7.07" length="18.48" shape="1423.44,926.22 1418.17,922.13 1416.46,919.07 1418.32,917.02 1423.74,915.99"/>
    </edge>
    <edge id=":12497687058_2" function="internal">
        <lane id=":12497687058_2_0" index="0" disallow="tram rail_urban rail rail_electric rail_fast ship container cable_car subway aircraft wheelchair scooter drone" speed="19.44" length="25.76" shape="1424.21,922.37 1398.51,924.23"/>
        <lane id=":12497687058_2_1" index="1" disallow="tram rail_urban rail rail_electric rail_fast ship container cable_car subway aircraft wheelchair scooter drone" speed="19.44" length="25.76" shape="1423.98,919.18 1398.28,921.04"/>
    </edge>
    <edge id=":12497687058_4" function="internal">
        <lane id=":12497687058_4_0" index="0" disallow="tram rail_urban rail rail_electric rail_fast ship container cable_car subway aircraft wheelchair scooter drone" speed="19.44" length="25.76" shape="1398.05,917.85 1423.74,915.99"/>
    </edge>
    <edge id=":12497795120_0" function="internal">
        <lane id=":12497795120_0_0" index="0" disallow="tram rail_urban rail rail_electric rail_fast ship container cable_car subway aircraft wheelchair scooter drone" speed="6.07" length="7.93" shape="1487.49,1093.36 1489.39,1094.43 1490.47,1095.85 1490.73,1097.61 1490.16,1099.72"/>
    </edge>
    <edge id=":12497795120_1" function="internal">
        <lane id=":12497795120_1_0" index="0" disallow="tram rail_urban rail rail_electric rail_fast ship container cable_car subway aircraft wheelchair scooter drone" speed="3.65" length="1.44" shape="1487.49,1093.36 1488.31,1094.54"/>
    </edge>
    <edge id=":12497795120_4" function="internal">
        <lane id=":12497795120_4_0" index="0" disallow="tram rail_urban rail rail_electric rail_fast ship container cable_car subway aircraft wheelchair scooter drone" speed="3.65" length="3.23" shape="1488.31,1094.54 1488.40,1095.43 1487.74,1096.03 1486.33,1096.34"/>
    </edge>
    <edge id=":12497795120_2" function="internal">
        <lane id=":12497795120_2_0" index="0" disallow="tram rail_urban rail rail_electric rail_fast ship container cable_car subway aircraft wheelchair scooter drone" speed="3.90" length="2.64" shape="1487.22,1098.46 1487.41,1097.76 1487.32,1097.17 1486.96,1096.70 1486.33,1096.34"/>
    </edge>
    <edge id=":12497795120_3" function="internal">
        <lane id=":12497795120_3_0" index="0" disallow="tram rail_urban rail rail_electric rail_fast ship container cable_car subway aircraft wheelchair scooter drone" speed="3.65" length="1.30" shape="1487.22,1098.46 1488.31,1097.75"/>
    </edge>
    <edge id=":12497795120_5" function="internal">
        <lane id=":12497795120_5_0" index="0" disallow="tram rail_urban rail rail_electric rail_fast ship container cable_car subway aircraft wheelchair scooter drone" speed="3.65" length="3.37" shape="1488.31,1097.75 1488.43,1097.67 1489.32,1097.62 1489.90,1098.30 1490.16,1099.72"/>
    </edge>
    <edge id=":12499066965_0" function="internal">
        <lane id=":12499066965_0_0" index="0" disallow="tram rail_urban rail rail_electric rail_fast ship container cable_car subway aircraft wheelchair scooter drone" speed="11.11" length="0.10" shape="881.97,1173.15 881.97,1173.15"/>
    </edge>
    <edge id=":12499066965_1" function="internal">
        <lane id=":12499066965_1_0" index="0" disallow="tram rail_urban rail rail_electric rail_fast ship container cable_car subway aircraft wheelchair scooter drone" speed="11.11" length="0.10" shape="879.27,1171.43 879.27,1171.43"/>
    </edge>
    <edge id=":12513715398_0" function="internal">
        <lane id=":12513715398_0_0" index="0" disallow="tram rail_urban rail rail_electric rail_fast ship container cable_car subway aircraft wheelchair scooter drone" speed="8.33" length="0.10" shape="2335.43,936.17 2335.43,936.17"/>
    </edge>
    <edge id=":12513715398_1" function="internal">
        <lane id=":12513715398_1_0" index="0" disallow="tram rail_urban rail rail_electric rail_fast ship container cable_car subway aircraft wheelchair scooter drone" speed="8.33" length="0.10" shape="2338.63,935.97 2338.63,935.97"/>
    </edge>
    <edge id=":1288129919_0" function="internal">
        <lane id=":1288129919_0_0" index="0" allow="pedestrian passenger delivery truck bicycle" speed="5.56" length="8.57" shape="862.59,1171.90 860.70,1170.42 859.85,1168.74 860.02,1166.86 861.22,1164.78"/>
    </edge>
    <edge id=":1288129919_1" function="internal">
        <lane id=":1288129919_1_0" index="0" allow="pedestrian passenger delivery truck bicycle" speed="3.65" length="4.67" shape="862.59,1171.90 861.95,1170.61 862.00,1169.72 862.75,1169.22 864.19,1169.13"/>
    </edge>
    <edge id=":1288129919_2" function="internal">
        <lane id=":1288129919_2_0" index="0" allow="pedestrian passenger delivery truck bicycle" speed="3.90" length="2.86" shape="863.73,1166.76 863.33,1167.45 863.28,1168.08 863.56,1168.64 864.19,1169.13"/>
    </edge>
    <edge id=":1288129919_3" function="internal">
        <lane id=":1288129919_3_0" index="0" allow="pedestrian passenger delivery truck bicycle" speed="3.65" length="4.67" shape="863.73,1166.76 862.36,1167.20 861.48,1167.02 861.10,1166.22 861.22,1164.78"/>
    </edge>
    <edge id=":1288129963_0" function="internal">
        <lane id=":1288129963_0_0" index="0" allow="pedestrian passenger delivery truck bicycle" speed="5.55" length="15.95" shape="919.11,1323.99 918.00,1320.17 916.59,1316.24 914.65,1312.71 911.95,1310.08"/>
    </edge>
    <edge id=":1288129963_1" function="internal">
        <lane id=":1288129963_1_0" index="0" allow="pedestrian passenger delivery truck bicycle" speed="5.55" length="20.23" shape="919.11,1323.99 917.97,1317.51 919.16,1314.18 922.70,1313.98 928.57,1316.93"/>
    </edge>
    <edge id=":1288129963_2" function="internal">
        <lane id=":1288129963_2_0" index="0" allow="pedestrian passenger delivery truck bicycle" speed="2.78" length="4.67" shape="919.11,1323.99 919.55,1322.61 920.21,1322.01 921.09,1322.17 922.19,1323.10"/>
    </edge>
    <edge id=":1288129963_3" function="internal">
        <lane id=":1288129963_3_0" index="0" allow="pedestrian passenger delivery truck bicycle" speed="5.46" length="9.97" shape="926.85,1319.62 923.95,1318.17 922.21,1318.27 921.62,1319.91 922.19,1323.10"/>
    </edge>
    <edge id=":1288129963_4" function="internal">
        <lane id=":1288129963_4_0" index="0" disallow="tram rail_urban rail rail_electric rail_fast ship container cable_car subway aircraft wheelchair scooter drone" speed="8.33" length="17.70" shape="926.85,1319.62 911.95,1310.08"/>
    </edge>
    <edge id=":1288129963_5" function="internal">
        <lane id=":1288129963_5_0" index="0" disallow="tram rail_urban rail rail_electric rail_fast ship container cable_car subway aircraft wheelchair scooter drone" speed="8.33" length="17.69" shape="913.68,1307.38 928.57,1316.93"/>
    </edge>
    <edge id=":1288129963_6" function="internal">
        <lane id=":1288129963_6_0" index="0" allow="pedestrian passenger delivery truck bicycle" speed="5.55" length="3.35" shape="913.68,1307.38 916.04,1309.75"/>
    </edge>
    <edge id=":1288129963_7" function="internal">
        <lane id=":1288129963_7_0" index="0" allow="pedestrian passenger delivery truck bicycle" speed="5.55" length="14.80" shape="916.04,1309.75 916.59,1310.30 918.99,1314.45 920.87,1319.00 922.19,1323.10"/>
    </edge>
    <edge id=":1288130184_0" function="internal">
        <lane id=":1288130184_0_0" index="0" disallow="tram rail_urban rail rail_electric rail_fast ship container cable_car subway aircraft wheelchair scooter drone" speed="8.33" length="0.31" shape="794.51,1228.79 794.26,1228.60"/>
    </edge>
    <edge id=":1288130184_1" function="internal">
        <lane id=":1288130184_1_0" index="0" disallow="tram rail_urban rail rail_electric rail_fast ship container cable_car subway aircraft wheelchair scooter drone" speed="8.33" length="0.27" shape="796.27,1226.10 796.48,1226.27"/>
    </edge>
    <edge id=":1288130188_0" function="internal">
        <lane id=":1288130188_0_0" index="0" allow="pedestrian passenger delivery truck bicycle" speed="2.78" length="9.78" shape="904.24,1439.34 901.79,1437.82 899.94,1436.97 897.95,1436.69 895.11,1436.90"/>
    </edge>
    <edge id=":1288130188_1" function="internal">
        <lane id=":1288130188_1_0" index="0" allow="pedestrian passenger delivery truck bicycle" speed="2.78" length="11.65" shape="904.24,1439.34 901.86,1437.36 900.45,1435.03 900.01,1432.33 900.53,1429.28"/>
    </edge>
    <edge id=":1288130188_2" function="internal">
        <lane id=":1288130188_2_0" index="0" allow="pedestrian passenger delivery truck bicycle" speed="2.78" length="4.67" shape="904.24,1439.34 903.65,1438.03 903.74,1437.14 904.50,1436.67 905.94,1436.64"/>
    </edge>
    <edge id=":1288130188_3" function="internal">
        <lane id=":1288130188_3_0" index="0" allow="pedestrian passenger delivery truck bicycle" speed="2.78" length="7.41" shape="903.58,1430.23 903.25,1432.17 903.53,1433.89 904.43,1435.38 905.94,1436.64"/>
    </edge>
    <edge id=":1288130188_4" function="internal">
        <lane id=":1288130188_4_0" index="0" allow="pedestrian passenger delivery truck bicycle" speed="2.78" length="11.45" shape="903.58,1430.23 902.37,1432.85 900.55,1434.83 898.13,1436.18 895.11,1436.90"/>
    </edge>
    <edge id=":1288130188_5" function="internal">
        <lane id=":1288130188_5_0" index="0" allow="pedestrian passenger delivery truck bicycle" speed="2.78" length="4.67" shape="903.58,1430.23 902.46,1431.14 901.58,1431.28 900.93,1430.66 900.53,1429.28"/>
    </edge>
    <edge id=":1288130188_6" function="internal">
        <lane id=":1288130188_6_0" index="0" allow="pedestrian passenger delivery truck bicycle" speed="2.78" length="7.50" shape="895.02,1433.69 896.97,1433.22 898.54,1432.33 899.73,1431.02 900.53,1429.28"/>
    </edge>
    <edge id=":1288130188_7" function="internal">
        <lane id=":1288130188_7_0" index="0" allow="pedestrian passenger delivery truck bicycle" speed="2.78" length="11.64" shape="895.02,1433.69 898.22,1433.52 900.75,1433.94 903.15,1434.97 905.94,1436.64"/>
    </edge>
    <edge id=":1288130188_8" function="internal">
        <lane id=":1288130188_8_0" index="0" allow="pedestrian passenger delivery truck bicycle" speed="2.78" length="4.69" shape="895.02,1433.69 896.24,1434.46 896.67,1435.25 896.29,1436.06 895.11,1436.90"/>
    </edge>
    <edge id=":1288130213_0" function="internal">
        <lane id=":1288130213_0_0" index="0" disallow="tram rail_urban rail rail_electric rail_fast ship container cable_car subway aircraft wheelchair scooter drone" speed="8.33" length="0.30" shape="782.25,1218.93 782.02,1218.74"/>
    </edge>
    <edge id=":1288130213_1" function="internal">
        <lane id=":1288130213_1_0" index="0" disallow="tram rail_urban rail rail_electric rail_fast ship container cable_car subway aircraft wheelchair scooter drone" speed="8.33" length="0.30" shape="784.03,1216.25 784.26,1216.44"/>
    </edge>
    <edge id=":1288130426_0" function="internal">
        <lane id=":1288130426_0_0" index="0" disallow="tram rail_urban rail rail_electric rail_fast ship container cable_car subway aircraft wheelchair scooter drone" speed="8.33" length="14.47" shape="695.60,1148.16 684.54,1138.83"/>
    </edge>
    <edge id=":1288130426_1" function="internal">
        <lane id=":1288130426_1_0" index="0" allow="pedestrian passenger delivery truck bicycle" speed="6.95" length="4.17" shape="695.60,1148.16 692.92,1145.18 692.87,1145.03"/>
    </edge>
    <edge id=":1288130426_7" function="internal">
        <lane id=":1288130426_7_0" index="0" allow="pedestrian passenger delivery truck bicycle" speed="6.95" length="10.30" shape="692.87,1145.03 691.92,1142.11 692.58,1138.95 694.91,1135.70"/>
    </edge>
    <edge id=":1288130426_2" function="internal">
        <lane id=":1288130426_2_0" index="0" allow="pedestrian passenger delivery truck bicycle" speed="6.36" length="9.04" shape="697.22,1137.91 695.76,1139.95 695.35,1141.92 695.98,1143.84 697.65,1145.70"/>
    </edge>
    <edge id=":1288130426_3" function="internal">
        <lane id=":1288130426_3_0" index="0" allow="pedestrian passenger delivery truck bicycle" speed="6.95" length="14.31" shape="697.22,1137.91 694.10,1140.39 690.95,1141.37 687.77,1140.85 684.54,1138.83"/>
    </edge>
    <edge id=":1288130426_4" function="internal">
        <lane id=":1288130426_4_0" index="0" allow="pedestrian passenger delivery truck bicycle" speed="3.65" length="4.67" shape="697.22,1137.91 695.81,1138.23 694.95,1137.96 694.65,1137.12 694.91,1135.70"/>
    </edge>
    <edge id=":1288130426_5" function="internal">
        <lane id=":1288130426_5_0" index="0" allow="pedestrian passenger delivery truck bicycle" speed="6.75" length="9.37" shape="686.62,1136.40 688.71,1137.70 690.79,1138.01 692.85,1137.35 694.91,1135.70"/>
    </edge>
    <edge id=":1288130426_6" function="internal">
        <lane id=":1288130426_6_0" index="0" disallow="tram rail_urban rail rail_electric rail_fast ship container cable_car subway aircraft wheelchair scooter drone" speed="8.33" length="14.43" shape="686.62,1136.40 697.65,1145.70"/>
    </edge>
    <edge id=":1288183857_0" function="internal">
        <lane id=":1288183857_0_0" index="0" disallow="tram rail_urban rail rail_electric rail_fast ship container cable_car subway aircraft wheelchair scooter drone" speed="8.33" length="0.12" shape="487.70,932.85 487.59,932.79"/>
    </edge>
    <edge id=":1288183857_1" function="internal">
        <lane id=":1288183857_1_0" index="0" disallow="tram rail_urban rail rail_electric rail_fast ship container cable_car subway aircraft wheelchair scooter drone" speed="3.65" length="2.34" shape="487.70,932.85 487.10,931.54 487.19,930.65"/>
    </edge>
    <edge id=":1288183857_4" function="internal">
        <lane id=":1288183857_4_0" index="0" disallow="tram rail_urban rail rail_electric rail_fast ship container cable_car subway aircraft wheelchair scooter drone" speed="3.65" length="2.34" shape="487.19,930.65 487.95,930.18 489.39,930.14"/>
    </edge>
    <edge id=":1288183857_2" function="internal">
        <lane id=":1288183857_2_0" index="0" disallow="tram rail_urban rail rail_electric rail_fast ship container cable_car subway aircraft wheelchair scooter drone" speed="8.33" length="0.37" shape="489.07,929.95 489.39,930.14"/>
    </edge>
    <edge id=":1288183857_3" function="internal">
        <lane id=":1288183857_3_0" index="0" disallow="tram rail_urban rail rail_electric rail_fast ship container cable_car subway aircraft wheelchair scooter drone" speed="3.65" length="2.34" shape="489.07,929.95 489.76,931.22 489.75,932.11"/>
    </edge>
    <edge id=":1288183857_5" function="internal">
        <lane id=":1288183857_5_0" index="0" disallow="tram rail_urban rail rail_electric rail_fast ship container cable_car subway aircraft wheelchair scooter drone" speed="3.65" length="2.34" shape="489.75,932.11 489.03,932.64 487.59,932.79"/>
    </edge>
    <edge id=":1288183884_0" function="internal">
        <lane id=":1288183884_0_0" index="0" disallow="tram rail_urban rail rail_electric rail_fast ship container cable_car subway aircraft wheelchair scooter drone" speed="13.89" length="0.13" shape="2266.35,871.73 2266.22,871.77"/>
    </edge>
    <edge id=":1288183884_1" function="internal">
        <lane id=":1288183884_1_0" index="0" disallow="tram rail_urban rail rail_electric rail_fast ship container cable_car subway aircraft wheelchair scooter drone" speed="13.89" length="0.27" shape="2265.21,868.74 2265.47,868.65"/>
    </edge>
    <edge id=":1288184091_0" function="internal">
        <lane id=":1288184091_0_0" index="0" disallow="tram rail_urban rail rail_electric rail_fast ship container cable_car subway aircraft wheelchair scooter drone" speed="3.65" length="4.67" shape="2284.81,863.10 2286.18,863.54 2286.79,864.20 2286.62,865.08 2285.69,866.18"/>
    </edge>
    <edge id=":1288184185_0" function="internal">
        <lane id=":1288184185_0_0" index="0" disallow="tram rail_urban rail rail_electric rail_fast ship container cable_car subway aircraft wheelchair scooter drone" speed="6.39" length="9.04" shape="2213.54,895.07 2212.59,892.76 2211.13,891.36 2209.17,890.86 2206.71,891.27"/>
    </edge>
    <edge id=":1288184185_1" function="internal">
        <lane id=":1288184185_1_0" index="0" disallow="tram rail_urban rail rail_electric rail_fast ship container cable_car subway aircraft wheelchair scooter drone" speed="8.16" length="14.29" shape="2213.54,895.07 2213.09,891.13 2213.95,887.96 2216.10,885.56 2219.56,883.93"/>
    </edge>
    <edge id=":1288184185_2" function="internal">
        <lane id=":1288184185_2_0" index="0" disallow="tram rail_urban rail rail_electric rail_fast ship container cable_car subway aircraft wheelchair scooter drone" speed="3.65" length="4.67" shape="2213.54,895.07 2214.02,893.71 2214.70,893.12 2215.57,893.31 2216.64,894.28"/>
    </edge>
    <edge id=":1288184185_3" function="internal">
        <lane id=":1288184185_3_0" index="0" disallow="tram rail_urban rail rail_electric rail_fast ship container cable_car subway aircraft wheelchair scooter drone" speed="6.70" length="9.30" shape="2220.49,887.00 2218.27,888.05 2216.88,889.62 2216.34,891.69 2216.64,894.28"/>
    </edge>
    <edge id=":1288184185_4" function="internal">
        <lane id=":1288184185_4_0" index="0" disallow="tram rail_urban rail rail_electric rail_fast ship container cable_car subway aircraft wheelchair scooter drone" speed="13.89" length="14.43" shape="2220.49,887.00 2206.71,891.27"/>
    </edge>
    <edge id=":1288184185_5" function="internal">
        <lane id=":1288184185_5_0" index="0" disallow="tram rail_urban rail rail_electric rail_fast ship container cable_car subway aircraft wheelchair scooter drone" speed="3.65" length="1.44" shape="2220.49,887.00 2219.11,886.58"/>
    </edge>
    <edge id=":1288184185_9" function="internal">
        <lane id=":1288184185_9_0" index="0" disallow="tram rail_urban rail rail_electric rail_fast ship container cable_car subway aircraft wheelchair scooter drone" speed="3.65" length="3.23" shape="2219.11,886.58 2218.50,885.93 2218.65,885.05 2219.56,883.93"/>
    </edge>
    <edge id=":1288184185_6" function="internal">
        <lane id=":1288184185_6_0" index="0" disallow="tram rail_urban rail rail_electric rail_fast ship container cable_car subway aircraft wheelchair scooter drone" speed="13.89" length="14.47" shape="2205.74,888.22 2219.56,883.93"/>
    </edge>
    <edge id=":1288184185_7" function="internal">
        <lane id=":1288184185_7_0" index="0" disallow="tram rail_urban rail rail_electric rail_fast ship container cable_car subway aircraft wheelchair scooter drone" speed="7.90" length="4.16" shape="2205.74,888.22 2209.67,887.57 2209.84,887.61"/>
    </edge>
    <edge id=":1288184185_8" function="internal">
        <lane id=":1288184185_8_0" index="0" disallow="tram rail_urban rail rail_electric rail_fast ship container cable_car subway aircraft wheelchair scooter drone" speed="3.65" length="1.44" shape="2205.74,888.22 2207.13,888.62"/>
    </edge>
    <edge id=":1288184185_10" function="internal">
        <lane id=":1288184185_10_0" index="0" disallow="tram rail_urban rail rail_electric rail_fast ship container cable_car subway aircraft wheelchair scooter drone" speed="7.90" length="10.25" shape="2209.84,887.61 2212.80,888.36 2215.12,890.60 2216.64,894.28"/>
    </edge>
    <edge id=":1288184185_11" function="internal">
        <lane id=":1288184185_11_0" index="0" disallow="tram rail_urban rail rail_electric rail_fast ship container cable_car subway aircraft wheelchair scooter drone" speed="3.65" length="3.23" shape="2207.13,888.62 2207.75,889.26 2207.61,890.14 2206.71,891.27"/>
    </edge>
    <edge id=":1289500819_0" function="internal">
        <lane id=":1289500819_0_0" index="0" disallow="tram rail_urban rail rail_electric rail_fast ship container cable_car subway aircraft wheelchair scooter drone" speed="19.44" length="4.57" shape="1357.50,923.08 1352.94,923.42"/>
    </edge>
    <edge id=":1289500819_1" function="internal">
        <lane id=":1289500819_1_0" index="0" disallow="tram rail_urban rail rail_electric rail_fast ship container cable_car subway aircraft wheelchair scooter drone" speed="8.53" length="3.88" shape="1352.95,917.02 1354.09,917.00 1354.87,916.88 1355.60,916.56 1356.57,915.96"/>
    </edge>
    <edge id=":1289500819_2" function="internal">
        <lane id=":1289500819_2_0" index="0" disallow="tram rail_urban rail rail_electric rail_fast ship container cable_car subway aircraft wheelchair scooter drone" speed="19.44" length="4.46" shape="1352.94,920.22 1357.39,919.88"/>
    </edge>