<?xml version="1.0" encoding="UTF-8"?>

<!-- generated on 2025-11-09 21:19:22.349761 by randomTrips.py v1_24_0+0000-b72eb3fabc8
<configuration>
    <net-file value="net\marchtrenk_clean2.net.xml"/>
    <route-file value="demand\background_trucks.trips.xml"/>
    <prefix value="bgt_"/>
    <trip-attributes value="type=&quot;truck_euro6&quot;"/>
    <seed value="2"/>
    <end value="7200.0"/>
    <period value="12.0"/>
</configuration>
-->

<!-- generated on 2025-11-09 21:19:22 by Eclipse SUMO duarouter Version 1.24.0
<duarouterConfiguration xmlns:xsi="http://www.w3.org/2001/XMLSchema-instance" xsi:noNamespaceSchemaLocation="http://sumo.dlr.de/xsd/duarouterConfiguration.xsd">

    <input>
        <net-file value="net\marchtrenk_clean2.net.xml"/>
        <route-files value="trips.trips.xml"/>
    </input>

    <output>
        <output-file value="demand\background_trucks.trips.xml"/>
        <alternatives-output value="NUL"/>
    </output>

    <time>
        <begin value="0.0"/>
        <end value="7200.0"/>
    </time>

    <report>
        <no-warnings value="true"/>
        <ignore-errors value="true"/>
        <no-step-log value="true"/>
    </report>

</duarouterConfiguration>
-->

<routes xmlns:xsi="http://www.w3.org/2001/XMLSchema-instance" xsi:noNamespaceSchemaLocation="http://sumo.dlr.de/xsd/routes_file.xsd">
    <vehicle id="bgt_0" type="truck_euro6" depart="0.00">
        <route edges="558918834#0 -314039227#1 -314039227#0 -23755647#1 E27 E29 -23755647#0 -1351019168 -558869958#1 E30 E33 -558869958#0 -150798464#3 558783357#0 558783357#1"/>
    </vehicle>
    <vehicle id="bgt_1" type="truck_euro6" depart="12.00">
        <route edges="-1352477107 -1350860316#1 -1350860316#0 E38 -1350860320#0 1350860319#0 156803992#1 324877657 324877656 324877658 156803987 406853547 E7 E6 156803982#1 406853546 406853545 406853548 237132924 237132923 174952924 237132921 406853549 314035731 E12 E11 E10 -57737039 -314035993 -57141200#1 -23755649#1 -23755649#0 312137767#2 312137767#3 -57116095 -174967684#2 191185979#0 191185979#2 191185979#3 191185979#5 -174967686#2 -174967686#1"/>
    </vehicle>
    <vehicle id="bgt_2" type="truck_euro6" depart="24.00">
        <route edges="314035994#1 314035994#2 314035994#3 -314035994#3 -314035994#2 -314035994#1 E24 E26 -29448148#9 -1283838781 398287565 237132914#1 975337161#0 975337161#1 237132905 237132917#6 237132917#7 237132917#0 237132906#0 -26578873#2 26578873#1"/>
    </vehicle>
    <vehicle id="bgt_3" type="truck_euro6" depart="36.00">
        <route edges="23713919 217460930#0 E5 -314039227#3"/>
    </vehicle>
    <vehicle id="bgt_4" type="truck_euro6" depart="48.00">
        <route edges="217460929#0 102408516 23713931 217460926 213842717 217461038#1-AddedOnRampEdge 217461038#1"/>
    </vehicle>
    <vehicle id="bgt_5" type="truck_euro6" depart="60.00">
        <route edges="206900065#0 E1 217460932#0 883759436 23656293 314039202#0 314039202#1 156803989 324877655 156803992#0 156803992#1 324877657 324877656 324877658 156803987 406853547 E7 E6 E9 -24609247#6"/>
    </vehicle>
    <vehicle id="bgt_6" type="truck_euro6" depart="72.00">
        <route edges="-878811132 -406077442#1 -406077442#0 -513169636#1 -513169636#0 -878984947#4 -878984947#3 -878984947#1 -878984947#0 558869958#0 E32 E31 558869958#1 1351019168 23755647#0 E28 E27 E29 -23755647#0 -1351019168 -558869958#1"/>
    </vehicle>
    <vehicle id="bgt_7" type="truck_euro6" depart="84.00">
        <route edges="26242019#1 29366696#0 29366696#1 29366696#2 29366773#2 -79571356 -1350860316#1 -1350860316#0 E38 -1350860320#0 1350860319#0 156803992#1 324877657 324877656 324877658 156803987 406853547 E7 E6 156803982#1 406853546 406853545 406853548 237132924 237132916 -237132918 406853541 237132914#1 975337161#0 975337161#1"/>
    </vehicle>
    <vehicle id="bgt_8" type="truck_euro6" depart="96.00">
        <route edges="558869957 878984947#1 878984947#2 -878984947#3 -878984947#1 -878984947#0 558869958#0 E32 E31 558869958#1 1351019168 23755647#0 E28 23755647#1 314039227#0 314039227#1 314039227#2 E4 E3 E2 E1 217460932#0 883759436 23656293 314039202#0 314039202#1 156803989 324877655 156803992#0 156803992#1 324877657 324877656 324877658 156803987 406853547 E7 E6 156803982#1 406853546 406853545 406853548 237132924 237132923 174952924 237132921 406853549 314035731 E12 E11 E10 -57737039 -314035993 -57141200#1 -23755649#1 -23755649#0 312137767#2 312137767#3 -57116095 -174967684#2 -174967684#1 174967684#1"/>
    </vehicle>
    <vehicle id="bgt_9" type="truck_euro6" depart="108.00">
        <route edges="-975337161#0 -237132914#1 -398287565 -237132915 -26289472#1 -29448148#1"/>
    </vehicle>
    <vehicle id="bgt_10" type="truck_euro6" depart="120.00">
        <route edges="-1221422824#3 -1221422824#2 1221422824#2 1221422824#3 1221422824#4 1221422824#5 1221422824#6 312137767#3 312137767#0 -1212551598#3 -1212551598#2 -1212551598#0"/>
    </vehicle>
    <vehicle id="bgt_11" type="truck_euro6" depart="132.00">
        <route edges="113607629#1 113607629#2 113607629#3 113607629#4 558918834#0 314039227#2 E4 E3 E2 E1 217460932#0 883759436 23656293 314039202#0 314039202#1 156803989 324877655 156803992#0 156803992#1 324877657 324877656 324877658 156803987 406853547 E7 E6 E9 E8 -406853547 -156803987 -324877658 -324877656 -324877657 -156803992#1 -156803992#0 -324877659"/>
    </vehicle>
    <vehicle id="bgt_12" type="truck_euro6" depart="144.00">
        <route edges="-428878586#4 -617259948#5 617259948#4 428878586#4 428878586#5 237132915 406853538#0"/>
    </vehicle>
    <vehicle id="bgt_13" type="truck_euro6" depart="156.00">
        <route edges="150798464#3 558869958#0 E32 E31 558869958#1 1351019168 23755647#0 E28 23755647#1 314039227#0 314039227#1 314039227#2 E4 E3 E2 E1 217460932#0 883759436 23656293 314039202#0 314039202#1 156803989 324877655 156803992#0 156803992#1 324877657 324877656 324877658 156803987 406853547 E7 E6 156803982#1 406853546 406853545 406853548 237132924 237132923 174952924 237132921 406853549 314035731 E12 E11 E10 -57737039 -314035993 -57141200#1 -23755649#1 -23755649#0 312137767#2 312137767#3 -57116095 -174967684#2 191185979#0 191185979#2"/>
    </vehicle>
    <vehicle id="bgt_14" type="truck_euro6" depart="168.00">
        <route edges="-29366469#1 -29366469#0 29366728#1 E15 E14 E17 558918832#1 206900065#0 E1 217460932#0 883759436 23656293 314039202#0 314039202#1 156803989 324877655 156803992#0 156803992#1 324877657 324877656 324877658 156803987 406853547 E7 E6 156803982#1 406853546 406853545 406853548 237132924 237132916 -237132918 406853541 237132914#1 975337161#0 975337161#1 237132905 237132917#6 237132917#7 237132917#0 237132906#0 -26578873#2 -26578873#0 -29363538#8 -29363538#7 -29363538#4 -1212043112"/>
    </vehicle>
    <vehicle id="bgt_15" type="truck_euro6" depart="180.00">
        <route edges="-324877658 -324877656 -324877657 -156803992#1 -156803992#0 -324877659 -156803989 -314039202#1 -314039202#0 -23656293 23713919 217460930#0 E5 -314039227#3 -314039227#1 -314039227#0 -23755647#1"/>
    </vehicle>
    <vehicle id="bgt_16" type="truck_euro6" depart="192.00">
        <route edges="1350860319#0 156803992#1 324877657 324877656 324877658 156803987 406853547 E7 1040612423 -26289472#2 -428878586#5 -428878586#4 -617259948#5 -928782863#1 98788168#1"/>
    </vehicle>
    <vehicle id="bgt_17" type="truck_euro6" depart="204.00">
        <route edges="23755645 E21 E23 237132911 -406853548 -406853545 -406853546 -156803982#1 E9 -24609247#6 -24609247#4 -24609247#3 -24609247#2 -26242019#4 -26242019#3 -26242019#2"/>
    </vehicle>
    <vehicle id="bgt_18" type="truck_euro6" depart="216.00">
        <route edges="406853538#0 29448148#8 E25 E24 -314035994#0 -1212551596 -314035992 E11 E10 E13 -314035731 -406853549 -237132921 -237132922 -237132923 -237132924 -406853548 -406853545 -406853546 -156803982#1 E9 E8 -406853547 -156803987 156803977#0 156803977#1 E36 1350860320#1 1350860316#1 1350860316#3 29366773#3"/>
    </vehicle>
    <vehicle id="bgt_19" type="truck_euro6" depart="228.00">
        <route edges="26242405#0 26242405#2 174967686#1 174967686#2 -191185979#5 -191185979#3 -191185979#2 -191185979#1 174967684#2 57116095 312137767#0 312137767#1 23755649#0 23755649#1 57141200#0 314035993 57737039 E13 -314035731 -406853549 -237132921 -237132922 -237132923 -237132924 -406853548 -406853545 -406853546 -156803982#1 E9 E8 E7 E6 156803982#1 406853546"/>
    </vehicle>
    <vehicle id="bgt_20" type="truck_euro6" depart="240.00">
        <route edges="29363538#9 29363538#11 29363538#13 -29363538#13 -29363538#12 -29363538#10 26578873#0 26578873#1 237132909#0 237132917#2 237132904 -237132920#2 E20 E19 -237132920#1 E23 237132911 -406853548 -406853545 -406853546 -156803982#1 E9 E8 -406853547 -156803987 -324877658 -324877656 -324877657 -156803992#1 -156803992#0 -324877659 -156803989 -314039202#1 -314039202#0 -23656293 23713919 217460930#0 E5 -314039227#3 -314039227#1 -314039227#0 -23755647#1 E27 557929943#0 557929943#1 26242017#6 29366773#0"/>
    </vehicle>
    <vehicle id="bgt_21" type="truck_euro6" depart="252.00">
        <route edges="-406077442#1 -406077442#0 -513169636#1 -513169636#0 -878984947#4 878984947#4"/>
    </vehicle>
    <vehicle id="bgt_22" type="truck_euro6" depart="264.00">
        <route edges="57737038 314035994#0 E26 E25 E24 -314035994#0 -1212551596 -314035992 E11 E10 -57737039 -314035993 -57141200#1 -23755649#1 -23755649#0 312137767#2 -1221422824#6 -1221422824#5 -1221422824#4 -1221422824#3 -1221422824#2 -26091447#2"/>
    </vehicle>
    <vehicle id="bgt_23" type="truck_euro6" depart="276.00">
        <route edges="29363538#1 29363538#2 29363538#5 29363538#8 26578873#0 26578873#1 237132909#0 237132917#2 237132904 -237132920#2 E20 E19 -237132920#1 E23 237132911 -406853548 -406853545 -406853546 -156803982#1 E9 E8 -406853547 -156803987 156803977#0 156803977#1 E36 1350860320#1 1350860316#1 1350860316#3 -29366773#2 -29366696#2 -29366696#1 -29366696#0 26242019#2 26242019#3"/>
    </vehicle>
    <vehicle id="bgt_24" type="truck_euro6" depart="288.00">
        <route edges="113607625#1 150798464#1 150798464#3 558869958#0 E32 E31 558869958#1 1351019168 23755647#0 E28 23755647#1 314039227#0 314039227#1 314039227#2 E4 E3 E2 E1 217460932#0 883759436 23656293 314039202#0 314039202#1 156803989"/>
    </vehicle>
    <vehicle id="bgt_25" type="truck_euro6" depart="300.00">
        <route edges="1221422824#0 1221422824#2 1221422824#3 1221422824#4 1221422824#5 1221422824#6 312137767#3 312137767#0 312137767#1 23755649#0 23755649#1 57141200#0 314035993 57737039 E13 -314035731 -406853549 -237132921 -237132922 -237132923 -237132924 -406853548 -406853545 -406853546 -156803982#1 E9 E8 -406853547 -156803987 -324877658 -324877656 -324877657 -156803992#1 -156803992#0 -324877659 -156803989 -314039202#1 -314039202#0 -23656293 23713919 217460930#0 E5 E4 217460934#0 217460907 4443427"/>
    </vehicle>
    <vehicle id="bgt_26" type="truck_euro6" depart="312.00">
        <route edges="1221422824#6 312137767#3 312137767#0 312137767#1 23755649#0 23755649#1 57141200#0 314035993 57737039 E13 E12 314035992 57737038 314035994#0 E26 E25 314035994#1"/>
    </vehicle>
    <vehicle id="bgt_27" type="truck_euro6" depart="324.00">
        <route edges="-406077442#1 -406077442#0 406077442#0"/>
    </vehicle>
    <vehicle id="bgt_28" type="truck_euro6" depart="336.00">
        <route edges="406853542 237132921 406853549 314035731 E12 E11 E10 E13 -314035731 -406853549 -237132921 -237132922 -237132923 -237132924 -406853548 -406853545 -406853546 -156803982#1 E9 E8 -406853547 -156803987 -324877658 -324877656 -324877657 -156803992#1 -156803992#0 -324877659 -156803989 -314039202#1 -314039202#0 -23656293 23713919 217460930#0 E5 -314039227#3 -314039227#1 -314039227#0 -23755647#1 E27 E29 E28 23755647#1 314039227#0 314039227#1 -558918834#1 113607637#0"/>
    </vehicle>
    <vehicle id="bgt_29" type="truck_euro6" depart="348.00">
        <route edges="191185979#0 191185979#2 191185979#3 191185979#5 -191185979#5 -191185979#3 -191185979#2 -191185979#1 174967684#2 57116095 312137767#0 312137767#1 23755649#0 23755649#1 57141200#0 314035993 57737039 E13 E12 314035992 57737038 314035994#0 E26 -29448148#9 -1283838781 -237132915 -428878586#5 -428878586#4 -617259948#5 617259948#4 428878586#4"/>
    </vehicle>
    <vehicle id="bgt_30" type="truck_euro6" depart="360.00">
        <route edges="26242019#1 29366696#0 29366696#1 29366696#2 29366773#2 -79571356 -1350860316#1 -1350860316#0 E38 -1350860320#0 1350860319#0 156803992#1 324877657 324877656 324877658 156803987 406853547 E7 E6 156803982#1 406853546 406853545 406853548 237132924 237132923 174952924 237132921 406853549 314035731 E12 E11 E10 -57737039 -314035993 -57141200#1 -23755649#1 -23755649#0 312137767#2 -1221422824#6 -1221422824#5 -1221422824#4 1221422824#4 1221422824#5 1221422824#6"/>
    </vehicle>
    <vehicle id="bgt_31" type="truck_euro6" depart="372.00">
        <route edges="-29363538#4 -1212043112 -23917399#3 -23917399#2 -23917399#1 -23917399#0 -29366556#1 -398287564#2 -398287564#1 -398287564#0"/>
    </vehicle>
    <vehicle id="bgt_32" type="truck_euro6" depart="384.00">
        <route edges="24609247#4 24609247#5 E8 -406853547 -156803987 -324877658 -324877656 -324877657 -156803992#1 -156803992#0 -324877659 -156803989 -314039202#1 -314039202#0 -23656293 23713919 217460930#0 E5 -314039227#3 -314039227#1 -314039227#0 -23755647#1 E27 E29 -23755647#0 -1351019168 -558869958#1 E30 26242018 -26242017#1"/>
    </vehicle>
    <vehicle id="bgt_33" type="truck_euro6" depart="396.00">
        <route edges="406853546 406853545 406853548 237132924 237132916 -237132918 406853541 -398287565 -237132915 -26289472#1 -29448148#1"/>
    </vehicle>
    <vehicle id="bgt_34" type="truck_euro6" depart="408.00">
        <route edges="406853547 E7 E6 E9 E8 -406853547 -156803987 -324877658 -324877656 -324877657 -156803992#1 -156803992#0 -324877659 -156803989 -314039202#1 -314039202#0 -23656293 23713919 217460930#0 E5 -314039227#3"/>
    </vehicle>
    <vehicle id="bgt_35" type="truck_euro6" depart="420.00">
        <route edges="558918834#0 -314039227#1 -314039227#0 -23755647#1 E27 557929943#0 557929943#1 26242017#6"/>
    </vehicle>
    <vehicle id="bgt_36" type="truck_euro6" depart="432.00">
        <route edges="1286176658#0 513169634#0 513169634#1 E14 E17 558918832#1 206900065#0 E1 E0 E5 -314039227#3 -314039227#1 -314039227#0 -23755647#1 E27 E29 E28 23755647#1 314039227#0 314039227#1 -558918834#1 -558869962#0 -113607629#3 156660752"/>
    </vehicle>
    <vehicle id="bgt_37" type="truck_euro6" depart="444.00">
        <route edges="237132918 406853542 237132921 406853549 314035731 E12 E11 E10 E13 -314035731 -406853549 -237132921 -237132922 -237132923 -237132924 -406853548 -406853545 -406853546 -156803982#1 E9 E8 -406853547 -156803987 -324877658 -324877656 -324877657 -156803992#1 -156803992#0 -324877659 -156803989 -314039202#1 -314039202#0 -23656293 23713919 217460930#0 E5 E4 217460934#0 217460907"/>
    </vehicle>
    <vehicle id="bgt_38" type="truck_euro6" depart="456.00">
        <route edges="-314039202#1 314039202#1 156803989 324877655 156803992#0 156803992#1 324877657 324877656 324877658 156803987 406853547 E7 E6 156803982#1 406853546 406853545 406853548 237132924 237132916 -237132918 406853541 237132914#1 975337161#0 975337161#1 237132905 237132917#6 237132917#7 237132917#0 237132906#0 -26578873#2 -26578873#0 -29363538#8 -29363538#7 -29363538#4 -29363538#1"/>
    </vehicle>
    <vehicle id="bgt_39" type="truck_euro6" depart="468.00">
        <route edges="1350860320#0 E37 E36 E38 -1350860320#0 1350860319#0 -156803992#0 -324877659 -156803989 -314039202#1 -314039202#0 -23656293 23713919 217460930#0 E5 E4 E3 E2 -206900065#1 -558918832#1 E16 E15 -558918832#0 513169634#1"/>
    </vehicle>
    <vehicle id="bgt_40" type="truck_euro6" depart="480.00">
        <route edges="217527749 23713931 217460926 23713932 203556989 217460908 217460925#0 E2 E1 217460932#0 883759436 23656293 314039202#0 314039202#1 156803989 324877655 156803992#0 156803992#1 324877657 324877656 324877658 156803987 406853547 E7 E6 E9 E8 -406853547 -156803987 -324877658 -324877656 -324877657 -156803992#1 -156803992#0"/>
    </vehicle>
    <vehicle id="bgt_41" type="truck_euro6" depart="492.00">
        <route edges="29448148#6 -29448148#6 -29448148#5 -29448148#4 -29448148#3 -29448148#2 26289472#0"/>
    </vehicle>
    <vehicle id="bgt_42" type="truck_euro6" depart="504.00">
        <route edges="406853546 406853545 406853548 237132924 237132916 -237132918 406853541 -398287565 -237132915 -26289472#1"/>
    </vehicle>
    <vehicle id="bgt_43" type="truck_euro6" depart="516.00">
        <route edges="27190252#1 27190252#2 29448148#1 26289472#0 237132915 398287565 237132914#1 975337161#0 975337161#1 237132905 237132917#6 237132917#7 237132917#0 237132917#1 237132917#2 237132904 -237132920#2 E20 E19 -237132920#1 E23 237132911 -406853548 -406853545 -406853546 -156803982#1 E9 E8 -406853547 -156803987 156803977#0 156803977#1 E36 1350860320#1 1350860316#1 1352477107 -1352477107"/>
    </vehicle>
    <vehicle id="bgt_44" type="truck_euro6" depart="528.00">
        <route edges="237132919#2 237132919#4 237132919#5 1212551598#0 1212551598#2 1212551598#3 312137767#1 23755649#0 23755649#1 57141200#0 314035993 57737039 E13 E12 314035992 57737038 314035994#0 E26 -29448148#9 -29448148#7 -29448148#6 -29448148#5 -29448148#4 -29448148#3"/>
    </vehicle>
    <vehicle id="bgt_45" type="truck_euro6" depart="540.00">
        <route edges="-29363538#8 29363538#8 26578873#0 26578873#1 237132909#0 237132917#2 237132917#3 237132917#4 237132917#5 237132917#6 406853543#0 398287564#0 398287570#0"/>
    </vehicle>
    <vehicle id="bgt_46" type="truck_euro6" depart="552.00">
        <route edges="-206900065#1 -558918832#1 E16 E15 E14 E17 558918832#1 206900065#0 E1 217460932#0 883759436 23656293 314039202#0 314039202#1 156803989 324877655 156803992#0 156803992#1 324877657 324877656 324877658 156803987 406853547 E7 E6 E9 E8 -406853547 -156803987 156803977#0 156803977#1"/>
    </vehicle>
    <vehicle id="bgt_47" type="truck_euro6" depart="564.00">
        <route edges="324599635 314035730 -314035730 -324599635 -314035732 E10 E13 -314035731 -406853549 -237132921 -237132922 -237132923 -237132924 -406853548 -406853545 -406853546 -156803982#1 E9 E8 -406853547 -156803987 156803977#0 156803977#1 E36 1350860320#1 1350860316#1 1350860316#3 -29366773#2 -29366696#2"/>
    </vehicle>
    <vehicle id="bgt_48" type="truck_euro6" depart="576.00">
        <route edges="-27191253 -988295349 988295349 27191252 1286176658#0 -1040612421 428878586#1 428878586#2 428878586#3 428878586#4 428878586#5 237132915 398287565 237132914#1 975337161#0 975337161#1 237132905 237132917#6 406853543#0 398287564#0 398287570#0 398287570#1 398287570#2"/>
    </vehicle>
    <vehicle id="bgt_49" type="truck_euro6" depart="588.00">
        <route edges="-617259948#3 617259948#2 617259948#4 -428878586#3 -428878586#2 -428878586#1 -428878586#0 513169634#0 513169634#1 E14 E17 558918832#1 206900065#0 E1 E0 E5 -314039227#3 -314039227#1 -314039227#0 -23755647#1 E27 557929943#0 557929943#1 -26242017#5 79571358 -29366794#1 26242019#1 26242019#2 26242019#3 26242019#4"/>
    </vehicle>
    <vehicle id="bgt_50" type="truck_euro6" depart="600.00">
        <route edges="-1212551598#3 -1212551598#2 -29366556#1 -398287564#2 -398287564#1 -398287564#0 406853544#0 237132917#0 237132917#1 237132917#2 237132917#3 237132917#4 237132910 -975337161#1 -975337161#0 -237132914#1 -398287565 -237132915 -428878586#5 -428878586#4 -428878586#3 -428878586#2 -428878586#1"/>
    </vehicle>
    <vehicle id="bgt_51" type="truck_euro6" depart="612.00">
        <route edges="-26242017#4 -26242017#3 -26242017#1 -26242017#0 23817553#1"/>
    </vehicle>
    <vehicle id="bgt_52" type="truck_euro6" depart="624.00">
        <route edges="-174967684#1 174967684#1 174967684#2 57116095 312137767#0 312137767#1 23755649#0 23755649#1 57141200#0 314035993 57737039 E13 -314035731 -406853549 -237132921 -237132922 -237132923 -237132924 -406853548 -406853545 -406853546 -156803982#1 E9 E8 -406853547 -156803987 -324877658 -324877656 -324877657 -156803992#1 -156803992#0 -324877659 -156803989 -314039202#1 -314039202#0 -23656293 23713919 217460930#0 E5 -314039227#3 -314039227#1 -314039227#0 -23755647#1 E27 E29 -23755647#0 -1351019168 -558869958#1 E30 E33 E32 E31 558869958#1"/>
    </vehicle>
    <vehicle id="bgt_53" type="truck_euro6" depart="636.00">
        <route edges="-1212551596 -314035992 E11 E10 E13 E12 314035992 57737038 314035994#0 E26 -29448148#9 -29448148#7 -29448148#6 -29448148#5 -29448148#4 -29448148#3 -29448148#2 -29448148#1 -29448148#0 -27190252#1 -26289473#1 26289473#1"/>
    </vehicle>
    <vehicle id="bgt_54" type="truck_euro6" depart="648.00">
        <route edges="-113607651#1 113607651#0 E31 558869958#1 1351019168 23755647#0 E28 E27 557929943#0 557929943#1 26242017#6 29366773#0 29366773#1 29366773#2 -29366773#2"/>
    </vehicle>
    <vehicle id="bgt_55" type="truck_euro6" depart="660.00">
        <route edges="29448148#3 29448148#4 29448148#5 29448148#6 29448148#7 -1283838781 398287565 237132914#1 975337161#0 975337161#1 237132905 237132917#6 237132917#7 237132917#0 237132917#1 237132917#2 237132904 -237132920#2 E20 E19 -237132920#1 E23 237132911 -406853548 -406853545 -406853546 -156803982#1 E9 -24609247#6"/>
    </vehicle>
    <vehicle id="bgt_56" type="truck_euro6" depart="672.00">
        <route edges="-26242019#2 29366696#0 29366696#1 29366696#2 29366773#2 -79571356 -1350860316#1 -1350860316#0 E38 -1350860320#0 1350860319#0 156803992#1 324877657 324877656 324877658 156803987 406853547 E7 E6 156803982#1 406853546 406853545 406853548 237132924 237132923 174952924 237132921 406853549 314035731 E12 E11 E10 -57737039 -314035993 -57141200#1 -23755649#1 -23755649#0 312137767#2 312137767#3 -57116095 -174967684#2 191185979#0 191185979#2 191185979#3 191185979#5 174967686#3 174967686#4 174967686#5 26091447#0"/>
    </vehicle>
    <vehicle id="bgt_57" type="truck_euro6" depart="684.00">
        <route edges="-45511730#1 -45511730#0 -314035994#3 -314035994#2 -314035994#1 E24 -314035994#0 -1212551596 -314035992 E11 E10 -57737039 -314035993 -57141200#1 -23755649#1 -23755649#0 312137767#2 -1221422824#6"/>
    </vehicle>
    <vehicle id="bgt_58" type="truck_euro6" depart="696.00">
        <route edges="975337161#0 975337161#1 237132905 237132917#6 237132917#7 237132917#0 237132917#1 237132917#2 237132904 -237132920#2 E20 E19 -237132920#1 E23 237132911 -406853548 -406853545 -406853546 -156803982#1 E9 -24609247#6 -24609247#4 -24609247#3 -24609247#2"/>
    </vehicle>
    <vehicle id="bgt_59" type="truck_euro6" depart="708.00">
        <route edges="-1221422824#4 1221422824#4 1221422824#5 1221422824#6 312137767#3 312137767#0 312137767#1 23755649#0 23755649#1 57141200#0 314035993 57737039 E13 -314035731 -406853549 -237132921 -237132922 -237132923 -237132924 -406853548 -406853545 -406853546 -156803982#1 E9 E8 -406853547 -156803987 156803977#0 156803977#1 E36 1350860320#1 1350860316#1 1352477107 -1350872887 -406646743#2 -406646743#1 -406646743#0"/>
    </vehicle>
    <vehicle id="bgt_60" type="truck_euro6" depart="720.00">
        <route edges="-237132915 237132915 398287565 237132914#1 975337161#0 975337161#1 237132905 237132917#6 406853543#0 398287564#0 398287570#0 -398287570#2 -398287570#1"/>
    </vehicle>
    <vehicle id="bgt_61" type="truck_euro6" depart="732.00">
        <route edges="-1212551598#3 -1212551598#2 -29366556#1 -398287564#2 -398287564#1 -398287564#0 406853544#0 237132917#0 237132917#1 237132917#2 237132904 -237132920#2 E20 E19 -237132920#1 E23 237132911 -406853548 -406853545 -406853546 -156803982#1 E9 E8 -406853547 -156803987 -324877658 -324877656 -324877657 -156803992#1 -156803992#0 -324877659 -156803989 -314039202#1 -314039202#0 -23656293 23713919 217460930#0 E5 -314039227#3 -314039227#1 -314039227#0 -23755647#1 E27 E29 -23755647#0 -1351019168 -558869958#1 E30 E33 -558869958#0 -150798464#3 -150798464#1 -150798464#0 -879391733 -23711988#1 113607625#0"/>
    </vehicle>
    <vehicle id="bgt_62" type="truck_euro6" depart="744.00">
        <route edges="29366288#0 -513169634#0 -1040612421 428878586#1 428878586#2 428878586#3 428878586#4 428878586#5 -26289472#1 -29448148#1 -29448148#0 -27190252#1 27190252#1 27190252#2"/>
    </vehicle>
    <vehicle id="bgt_63" type="truck_euro6" depart="756.00">
        <route edges="406853543#0 398287564#0 398287570#0 -398287570#0 -398287564#0 406853544#0 237132917#0 237132906#0 -26578873#2 -26578873#0 -29363538#8 29363538#8"/>
    </vehicle>
    <vehicle id="bgt_64" type="truck_euro6" depart="768.00">
        <route edges="324877658 156803987 406853547 E7 E6 E9 E8 -406853547 -156803987 -324877658 -324877656 -324877657 -156803992#1 -156803992#0 -324877659 -156803989 -314039202#1 -314039202#0 -23656293 23713919 217460930#0 E5 -314039227#3 -314039227#1 -314039227#0 -23755647#1 E27 557929943#0 557929943#1 26242017#6"/>
    </vehicle>
    <vehicle id="bgt_65" type="truck_euro6" depart="780.00">
        <route edges="113607629#4 558918834#0 -314039227#1 -314039227#0 -23755647#1 E27 557929943#0 557929943#1 26242017#6 29366773#0 29366773#1 -29366696#2 29366439 -29366439"/>
    </vehicle>
    <vehicle id="bgt_66" type="truck_euro6" depart="792.00">
        <route edges="237132920#2 237132907 237132917#4 237132917#5 237132917#6 237132917#7 237132917#0 237132917#1 237132917#2 237132904 -237132920#2 E20 E19 -237132920#1 E23 237132911 -406853548 -406853545 -406853546 -156803982#1 E9 E8 -406853547 -156803987 -324877658"/>
    </vehicle>
    <vehicle id="bgt_67" type="truck_euro6" depart="804.00">
        <route edges="-191185979#3 -191185979#2 -191185979#1 174967684#2 57116095 312137767#0 312137767#1 23755649#0 23755649#1 57141200#0 314035993 57737039 E13 -314035731 -406853549 -237132921 -237132922 -237132923 -237132924 -406853548 -406853545 -406853546 -156803982#1 E9 E8 -406853547 -156803987 -324877658 -324877656 -324877657 -156803992#1 -156803992#0 -324877659 -156803989 -314039202#1 -314039202#0 -23656293 23713919 217460930#0 E5 -314039227#3 -314039227#1 -314039227#0 -23755647#1 E27 E29 -23755647#0 -1351019168 -558869958#1 E30 E33 -558869958#0 -150798464#3 -150798464#1 -150798464#0 -879391733 -23711988#1 113607625#0"/>
    </vehicle>
    <vehicle id="bgt_68" type="truck_euro6" depart="816.00">
        <route edges="398287564#3 398287564#5 -398287564#5 -398287564#4 29366556#0 1212551598#2 1212551598#3 312137767#1 23755649#0 23755649#1 57141200#0 314035993 57737039 E13 -314035731 -406853549 -237132921 -237132922"/>
    </vehicle>
    <vehicle id="bgt_69" type="truck_euro6" depart="828.00">
        <route edges="1350860320#1 -1350860316#0 E38 -1350860320#0 1350860319#0 156803992#1 324877657 324877656 324877658 156803987 406853547 E7 E6 156803982#1 406853546 406853545 406853548 237132924 237132916 -237132918 406853541 237132914#1 975337161#0 975337161#1 237132905 237132917#6 237132917#7 237132917#0 237132906#0 -26578873#2 -26578873#0 -29363538#8 -29363538#7 -29363538#4 -1212043112 -23917399#3 -23917399#2 -23917399#1 -23917399#0"/>
    </vehicle>
    <vehicle id="bgt_70" type="truck_euro6" depart="840.00">
        <route edges="57116095 312137767#0 312137767#1 23755649#0 23755649#1 57141200#0 314035993 57737039 E13 -314035731 -406853549 -237132921 -237132922 -237132923 -237132924 -406853548 -406853545 -406853546 -156803982#1 E9 E8 -406853547 -156803987 156803977#0 156803977#1 E36 1350860320#1 1350860316#1 1352477107 -1350872887 -29366773#3"/>
    </vehicle>
    <vehicle id="bgt_71" type="truck_euro6" depart="852.00">
        <route edges="217460929#0 102408516 23713931 217460926 23713932 203556989 217460908 217460925#0 E2 E1 E0 E5 -314039227#3 -314039227#1 -314039227#0 -23755647#1 E27 E29 -23755647#0 -1351019168 -558869958#1 E30 E33 -558869958#0 558869957 878984947#1 878984947#2 -878984947#3 -878984947#1 -878984947#0"/>
    </vehicle>
    <vehicle id="bgt_72" type="truck_euro6" depart="864.00">
        <route edges="-113607644#0 -113607625#0 23711988#1 879391733 150798464#0 150798464#1 150798464#3 558869958#0 E32 E31 558869958#1 1351019168 23755647#0 E28 23755647#1 314039227#0 314039227#1 314039227#2 E4 E3 E2 E1 217460932#0 883759436 23656293 314039202#0 314039202#1 156803989 324877655 156803992#0 156803992#1 324877657 324877656 324877658 156803987 406853547 E7 E6 156803982#1 406853546 406853545 406853548 237132924 237132923 174952924 237132921 406853549 314035731 E12 E11 E10 -57737039 -314035993 -57141200#1 -23755649#1 -23755649#0 312137767#2 312137767#3 -57116095 -174967684#2 191185979#0"/>
    </vehicle>
    <vehicle id="bgt_73" type="truck_euro6" depart="876.00">
        <route edges="-23755649#0 312137767#2 312137767#3 312137767#0 312137767#1 23755649#0 23755649#1 57141200#0 314035993 57737039 E13 -314035731 -406853549 -237132921 -237132922 -237132923 -237132924 -406853548 -406853545 -406853546 -156803982#1 E9 E8 -406853547 -156803987 -324877658 -324877656 -324877657 -156803992#1 -156803992#0 -324877659 -156803989 -314039202#1 -314039202#0 -23656293 23713919 217460930#0 E5 -314039227#3 -314039227#1 -314039227#0 -23755647#1 E27 E29 -23755647#0 -1351019168"/>
    </vehicle>
    <vehicle id="bgt_74" type="truck_euro6" depart="888.00">
        <route edges="-1221422824#2 -26091447#2"/>
    </vehicle>
    <vehicle id="bgt_75" type="truck_euro6" depart="900.00">
        <route edges="-174967686#5 -174967686#4 -174967686#3 -191185979#5 -191185979#3 -191185979#2 -191185979#1 174967684#2 57116095 312137767#0 312137767#1 23755649#0 23755649#1 57141200#0 314035993 57737039 E13 -314035731 -406853549 -237132921 -237132922 -237132923 -237132924 237132924 237132916"/>
    </vehicle>
    <vehicle id="bgt_76" type="truck_euro6" depart="912.00">
        <route edges="1350860316#3 -29366773#2 -29366773#1 -29366794#2 -29366794#1 -26242019#0 -26242017#3 -26242017#1 -26242017#0 23817553#1 35145512#0 879391733"/>
    </vehicle>
    <vehicle id="bgt_77" type="truck_euro6" depart="924.00">