<?xml version="1.0" encoding="UTF-8"?>

<!-- generated on 2025-11-09 20:30:09.799138 by randomTrips.py v1_24_0+0000-b72eb3fabc8
<configuration>
    <net-file value="net\marchtrenk_clean2.net.xml"/>
    <route-file value="demand\background_trucks.trips.xml"/>
    <prefix value="bgt_"/>
    <trip-attributes value="type=&quot;truck_euro6&quot;"/>
    <seed value="2"/>
    <end value="7200.0"/>
    <period value="12.0"/>
</configuration>
-->

<routes xmlns:xsi="http://www.w3.org/2001/XMLSchema-instance" xsi:noNamespaceSchemaLocation="http://sumo.dlr.de/xsd/routes_file.xsd">
    <trip id="bgt_0" depart="0.00" from="558918834#0" to="558783357#1" type="truck_euro6"/>
    <trip id="bgt_1" depart="12.00" from="-1352477107" to="-174967686#1" type="truck_euro6"/>
    <trip id="bgt_2" depart="24.00" from="314035994#1" to="26578873#1" type="truck_euro6"/>
    <trip id="bgt_3" depart="36.00" from="217460929#0" to="217461038#1" type="truck_euro6"/>
    <trip id="bgt_4" depart="48.00" from="206900065#0" to="-24609247#6" type="truck_euro6"/>
    <trip id="bgt_5" depart="60.00" from="-878811132" to="-558869958#1" type="truck_euro6"/>
    <trip id="bgt_6" depart="72.00" from="26242019#1" to="975337161#1" type="truck_euro6"/>
    <trip id="bgt_7" depart="84.00" from="558869957" to="174967684#1" type="truck_euro6"/>
    <trip id="bgt_8" depart="96.00" from="-975337161#0" to="-29448148#1" type="truck_euro6"/>
    <trip id="bgt_9" depart="108.00" from="-1221422824#3" to="-1212551598#0" type="truck_euro6"/>
    <trip id="bgt_10" depart="120.00" from="113607629#1" to="-324877659" type="truck_euro6"/>
    <trip id="bgt_11" depart="132.00" from="-428878586#4" to="406853538#0" type="truck_euro6"/>
    <trip id="bgt_12" depart="144.00" from="150798464#3" to="191185979#2" type="truck_euro6"/>
    <trip id="bgt_13" depart="156.00" from="-29366469#1" to="-1212043112" type="truck_euro6"/>
    <trip id="bgt_14" depart="168.00" from="-324877658" to="-23755647#1" type="truck_euro6"/>
    <trip id="bgt_15" depart="180.00" from="1350860319#0" to="98788168#1" type="truck_euro6"/>
    <trip id="bgt_16" depart="192.00" from="23755645" to="-26242019#2" type="truck_euro6"/>
    <trip id="bgt_17" depart="204.00" from="406853538#0" to="29366773#3" type="truck_euro6"/>
    <trip id="bgt_18" depart="216.00" from="26242405#0" to="406853546" type="truck_euro6"/>
    <trip id="bgt_19" depart="228.00" from="29363538#9" to="29366773#0" type="truck_euro6"/>
    <trip id="bgt_20" depart="240.00" from="-406077442#1" to="878984947#4" type="truck_euro6"/>
    <trip id="bgt_21" depart="252.00" from="57737038" to="-26091447#2" type="truck_euro6"/>
    <trip id="bgt_22" depart="264.00" from="29363538#1" to="26242019#3" type="truck_euro6"/>
    <trip id="bgt_23" depart="276.00" from="113607625#1" to="156803989" type="truck_euro6"/>
    <trip id="bgt_24" depart="288.00" from="1221422824#0" to="4443427" type="truck_euro6"/>
    <trip id="bgt_25" depart="300.00" from="1221422824#6" to="314035994#1" type="truck_euro6"/>
    <trip id="bgt_26" depart="312.00" from="-406077442#1" to="406077442#0" type="truck_euro6"/>
    <trip id="bgt_27" depart="324.00" from="406853542" to="113607637#0" type="truck_euro6"/>
    <trip id="bgt_28" depart="336.00" from="191185979#0" to="428878586#4" type="truck_euro6"/>
    <trip id="bgt_29" depart="348.00" from="26242019#1" to="1221422824#6" type="truck_euro6"/>
    <trip id="bgt_30" depart="360.00" from="-29363538#4" to="-398287564#0" type="truck_euro6"/>
    <trip id="bgt_31" depart="372.00" from="24609247#4" to="-26242017#1" type="truck_euro6"/>
    <trip id="bgt_32" depart="384.00" from="406853546" to="-29448148#1" type="truck_euro6"/>
    <trip id="bgt_33" depart="396.00" from="406853547" to="-314039227#3" type="truck_euro6"/>
    <trip id="bgt_34" depart="408.00" from="558918834#0" to="26242017#6" type="truck_euro6"/>
    <trip id="bgt_35" depart="420.00" from="1286176658#0" to="156660752" type="truck_euro6"/>
    <trip id="bgt_36" depart="432.00" from="237132918" to="217460907" type="truck_euro6"/>
    <trip id="bgt_37" depart="444.00" from="-314039202#1" to="-29363538#1" type="truck_euro6"/>
    <trip id="bgt_38" depart="456.00" from="1350860320#0" to="513169634#1" type="truck_euro6"/>
    <trip id="bgt_39" depart="468.00" from="217527749" to="-156803992#0" type="truck_euro6"/>
    <trip id="bgt_40" depart="480.00" from="29448148#6" to="26289472#0" type="truck_euro6"/>
    <trip id="bgt_41" depart="492.00" from="406853546" to="-26289472#1" type="truck_euro6"/>
    <trip id="bgt_42" depart="504.00" from="27190252#1" to="-1352477107" type="truck_euro6"/>
    <trip id="bgt_43" depart="516.00" from="237132919#2" to="-29448148#3" type="truck_euro6"/>
    <trip id="bgt_44" depart="528.00" from="-29363538#8" to="398287570#0" type="truck_euro6"/>
    <trip id="bgt_45" depart="540.00" from="-206900065#1" to="156803977#1" type="truck_euro6"/>
    <trip id="bgt_46" depart="552.00" from="324599635" to="-29366696#2" type="truck_euro6"/>
    <trip id="bgt_47" depart="564.00" from="-27191253" to="398287570#2" type="truck_euro6"/>
    <trip id="bgt_48" depart="576.00" from="-617259948#3" to="26242019#4" type="truck_euro6"/>
    <trip id="bgt_49" depart="588.00" from="-1212551598#3" to="-428878586#1" type="truck_euro6"/>
    <trip id="bgt_50" depart="600.00" from="-26242017#4" to="23817553#1" type="truck_euro6"/>
    <trip id="bgt_51" depart="612.00" from="-174967684#1" to="558869958#1" type="truck_euro6"/>
    <trip id="bgt_52" depart="624.00" from="-1212551596" to="26289473#1" type="truck_euro6"/>
    <trip id="bgt_53" depart="636.00" from="-113607651#1" to="-29366773#2" type="truck_euro6"/>
    <trip id="bgt_54" depart="648.00" from="29448148#3" to="-24609247#6" type="truck_euro6"/>
    <trip id="bgt_55" depart="660.00" from="-26242019#2" to="26091447#0" type="truck_euro6"/>
    <trip id="bgt_56" depart="672.00" from="-45511730#1" to="-1221422824#6" type="truck_euro6"/>
    <trip id="bgt_57" depart="684.00" from="975337161#0" to="-24609247#2" type="truck_euro6"/>
    <trip id="bgt_58" depart="696.00" from="-1221422824#4" to="-406646743#0" type="truck_euro6"/>
    <trip id="bgt_59" depart="708.00" from="-237132915" to="-398287570#1" type="truck_euro6"/>
    <trip id="bgt_60" depart="720.00" from="-1212551598#3" to="113607625#0" type="truck_euro6"/>
    <trip id="bgt_61" depart="732.00" from="29366288#0" to="27190252#2" type="truck_euro6"/>
    <trip id="bgt_62" depart="744.00" from="406853543#0" to="29363538#8" type="truck_euro6"/>
    <trip id="bgt_63" depart="756.00" from="324877658" to="26242017#6" type="truck_euro6"/>
    <trip id="bgt_64" depart="768.00" from="113607629#4" to="-29366439" type="truck_euro6"/>
    <trip id="bgt_65" depart="780.00" from="237132920#2" to="-324877658" type="truck_euro6"/>
    <trip id="bgt_66" depart="792.00" from="-191185979#3" to="113607625#0" type="truck_euro6"/>
    <trip id="bgt_67" depart="804.00" from="398287564#3" to="-237132922" type="truck_euro6"/>
    <trip id="bgt_68" depart="816.00" from="1350860320#1" to="-23917399#0" type="truck_euro6"/>
    <trip id="bgt_69" depart="828.00" from="57116095" to="-29366773#3" type="truck_euro6"/>
    <trip id="bgt_70" depart="840.00" from="217460929#0" to="-878984947#0" type="truck_euro6"/>
    <trip id="bgt_71" depart="852.00" from="-113607644#0" to="191185979#0" type="truck_euro6"/>
    <trip id="bgt_72" depart="864.00" from="-23755649#0" to="-1351019168" type="truck_euro6"/>
    <trip id="bgt_73" depart="876.00" from="-1221422824#2" to="-26091447#2" type="truck_euro6"/>
    <trip id="bgt_74" depart="888.00" from="-174967686#5" to="237132916" type="truck_euro6"/>
    <trip id="bgt_75" depart="900.00" from="1350860316#3" to="879391733" type="truck_euro6"/>
    <trip id="bgt_76" depart="912.00" from="513169634#1" to="975337161#1" type="truck_euro6"/>
    <trip id="bgt_77" depart="924.00" from="-29366439" to="1040612423" type="truck_euro6"/>
    <trip id="bgt_78" depart="936.00" from="26242017#1" to="-29366773#2" type="truck_euro6"/>
    <trip id="bgt_79" depart="948.00" from="-617259948#3" to="156803982#1" type="truck_euro6"/>
    <trip id="bgt_80" depart="960.00" from="-113607625#1" to="-1221422824#2" type="truck_euro6"/>
    <trip id="bgt_81" depart="972.00" from="-558869962#0" to="-237132915" type="truck_euro6"/>
    <trip id="bgt_82" depart="984.00" from="26242019#1" to="-29366696#0" type="truck_euro6"/>
    <trip id="bgt_83" depart="996.00" from="-191185979#2" to="-26242019#2" type="truck_euro6"/>
    <trip id="bgt_84" depart="1008.00" from="-29366439" to="-29363538#7" type="truck_euro6"/>
    <trip id="bgt_85" depart="1020.00" from="1352477107" to="113607644#0" type="truck_euro6"/>
    <trip id="bgt_86" depart="1032.00" from="-29363538#0" to="406853546" type="truck_euro6"/>
    <trip id="bgt_87" depart="1044.00" from="57737038" to="26289473#1" type="truck_euro6"/>
    <trip id="bgt_88" depart="1056.00" from="-878984947#0" to="150798464#0" type="truck_euro6"/>
    <trip id="bgt_89" depart="1068.00" from="206900065#0" to="-1350860316#1" type="truck_euro6"/>
    <trip id="bgt_90" depart="1080.00" from="-57116095" to="156803978" type="truck_euro6"/>
    <trip id="bgt_91" depart="1092.00" from="-26242019#1" to="-174967686#5" type="truck_euro6"/>
    <trip id="bgt_92" depart="1104.00" from="29366773#3" to="-428878586#2" type="truck_euro6"/>
    <trip id="bgt_93" depart="1116.00" from="1352477107" to="428878586#4" type="truck_euro6"/>
    <trip id="bgt_94" depart="1128.00" from="217460932#0" to="-314035992" type="truck_euro6"/>
    <trip id="bgt_95" depart="1140.00" from="883759436" to="-428878586#5" type="truck_euro6"/>
    <trip id="bgt_96" depart="1152.00" from="-113607644#1" to="24609247#3" type="truck_euro6"/>
    <trip id="bgt_97" depart="1164.00" from="-191185979#3" to="-314039227#1" type="truck_euro6"/>
    <trip id="bgt_98" depart="1176.00" from="314035994#3" to="23817553#1" type="truck_euro6"/>
    <trip id="bgt_99" depart="1188.00" from="-113607637#0" to="113607629#0" type="truck_euro6"/>
    <trip id="bgt_100" depart="1200.00" from="-558918832#0" to="1221422824#6" type="truck_euro6"/>
    <trip id="bgt_101" depart="1212.00" from="-27190252#1" to="217460907" type="truck_euro6"/>
    <trip id="bgt_102" depart="1224.00" from="-156803987" to="-314035731" type="truck_euro6"/>
    <trip id="bgt_103" depart="1236.00" from="-428878586#1" to="513169634#1" type="truck_euro6"/>
    <trip id="bgt_104" depart="1248.00" from="-156803992#0" to="29363538#8" type="truck_euro6"/>
    <trip id="bgt_105" depart="1260.00" from="-26242405#1" to="213842717" type="truck_euro6"/>
    <trip id="bgt_106" depart="1272.00" from="-513169634#0" to="113607644#0" type="truck_euro6"/>
    <trip id="bgt_107" depart="1284.00" from="29363538#1" to="-558869962#0" type="truck_euro6"/>
    <trip id="bgt_108" depart="1296.00" from="-237132919#5" to="-237132920#1" type="truck_euro6"/>
    <trip id="bgt_109" depart="1308.00" from="-174967684#0" to="324599635" type="truck_euro6"/>
    <trip id="bgt_110" depart="1320.00" from="237132910" to="558918834#0" type="truck_euro6"/>
    <trip id="bgt_111" depart="1332.00" from="23917399#3" to="-1212551596" type="truck_euro6"/>
    <trip id="bgt_112" depart="1344.00" from="237132920#1" to="29366696#0" type="truck_euro6"/>
    <trip id="bgt_113" depart="1356.00" from="26242019#1" to="1350860320#0" type="truck_euro6"/>
    <trip id="bgt_114" depart="1368.00" from="-406646743#1" to="113607629#3" type="truck_euro6"/>
    <trip id="bgt_115" depart="1380.00" from="29366773#1" to="-29448148#1" type="truck_euro6"/>
    <trip id="bgt_116" depart="1392.00" from="150798464#3" to="1221422824#2" type="truck_euro6"/>
    <trip id="bgt_117" depart="1404.00" from="558918832#1" to="29448148#1" type="truck_euro6"/>
    <trip id="bgt_118" depart="1416.00" from="513169634#0" to="314035994#3" type="truck_euro6"/>
    <trip id="bgt_119" depart="1428.00" from="-314035992" to="-29366469#2" type="truck_euro6"/>
    <trip id="bgt_120" depart="1440.00" from="1212551598#3" to="-29366773#3" type="truck_euro6"/>
    <trip id="bgt_121" depart="1452.00" from="-79571356" to="23917399#2" type="truck_euro6"/>
    <trip id="bgt_122" depart="1464.00" from="428878586#2" to="217460903" type="truck_euro6"/>
    <trip id="bgt_123" depart="1476.00" from="29448148#5" to="-191185979#1" type="truck_euro6"/>
    <trip id="bgt_124" depart="1488.00" from="-406646743#0" to="98788168#0" type="truck_euro6"/>
    <trip id="bgt_125" depart="1500.00" from="-23917399#0" to="-79571358" type="truck_euro6"/>
    <trip id="bgt_126" depart="1512.00" from="-150798464#3" to="-174967686#1" type="truck_euro6"/>
    <trip id="bgt_127" depart="1524.00" from="406853540" to="928782869" type="truck_euro6"/>
    <trip id="bgt_128" depart="1536.00" from="237132916" to="-237132922" type="truck_euro6"/>
    <trip id="bgt_129" depart="1548.00" from="-314035992" to="-29366469#2" type="truck_euro6"/>
    <trip id="bgt_130" depart="1560.00" from="23713931" to="23917399#3" type="truck_euro6"/>
    <trip id="bgt_131" depart="1572.00" from="-878984947#4" to="156803978" type="truck_euro6"/>
    <trip id="bgt_132" depart="1584.00" from="-237132914#1" to="174952924" type="truck_euro6"/>
    <trip id="bgt_133" depart="1596.00" from="558869958#0" to="29363538#8" type="truck_euro6"/>
    <trip id="bgt_134" depart="1608.00" from="-174967686#5" to="150798464#3" type="truck_euro6"/>
    <trip id="bgt_135" depart="1620.00" from="26242017#5" to="-29366773#2" type="truck_euro6"/>
    <trip id="bgt_136" depart="1632.00" from="406853538#0" to="113607637#0" type="truck_euro6"/>
    <trip id="bgt_137" depart="1644.00" from="26091447#0" to="-57116095" type="truck_euro6"/>
    <trip id="bgt_138" depart="1656.00" from="98788168#0" to="29366728#1" type="truck_euro6"/>
    <trip id="bgt_139" depart="1668.00" from="191185979#3" to="-23917399#0" type="truck_euro6"/>
    <trip id="bgt_140" depart="1680.00" from="-879391733" to="-1212551598#2" type="truck_euro6"/>
    <trip id="bgt_141" depart="1692.00" from="-26242019#0" to="149987609" type="truck_euro6"/>
    <trip id="bgt_142" depart="1704.00" from="1212043112" to="-57141200#1" type="truck_euro6"/>
    <trip id="bgt_143" depart="1716.00" from="26242017#3" to="513169636#0" type="truck_euro6"/>
    <trip id="bgt_144" depart="1728.00" from="26091447#1" to="1212551598#0" type="truck_euro6"/>
    <trip id="bgt_145" depart="1740.00" from="57737038" to="-398287564#4" type="truck_euro6"/>
    <trip id="bgt_146" depart="1752.00" from="29363538#8" to="324877655" type="truck_euro6"/>
    <trip id="bgt_147" depart="1764.00" from="-29363538#7" to="237132906#0" type="truck_euro6"/>
    <trip id="bgt_148" depart="1776.00" from="-558783357#1" to="23755647#1" type="truck_euro6"/>
    <trip id="bgt_149" depart="1788.00" from="878984947#2" to="237132916" type="truck_euro6"/>
    <trip id="bgt_150" depart="1800.00" from="-113607629#2" to="113607644#0" type="truck_euro6"/>
    <trip id="bgt_151" depart="1812.00" from="26242017#3" to="406077442#0" type="truck_euro6"/>
    <trip id="bgt_152" depart="1824.00" from="237132918" to="29448148#7" type="truck_euro6"/>
    <trip id="bgt_153" depart="1836.00" from="-113607644#0" to="557929943#0" type="truck_euro6"/>
    <trip id="bgt_154" depart="1848.00" from="26242019#4" to="217461038#1" type="truck_euro6"/>
    <trip id="bgt_155" depart="1860.00" from="406853544#0" to="406077442#1" type="truck_euro6"/>
    <trip id="bgt_156" depart="1872.00" from="-191185979#2" to="29448148#7" type="truck_euro6"/>
    <trip id="bgt_157" depart="1884.00" from="29366413" to="-26578873#2" type="truck_euro6"/>
    <trip id="bgt_158" depart="1896.00" from="26578873#1" to="217460903" type="truck_euro6"/>
    <trip id="bgt_159" depart="1908.00" from="-26242405#1" to="29448148#1" type="truck_euro6"/>
    <trip id="bgt_160" depart="1920.00" from="-23755647#1" to="23656293" type="truck_euro6"/>
    <trip id="bgt_161" depart="1932.00" from="-878984947#0" to="-29366773#1" type="truck_euro6"/>
    <trip id="bgt_162" depart="1944.00" from="174967686#5" to="113607651#0" type="truck_euro6"/>
    <trip id="bgt_163" depart="1956.00" from="-26578873#0" to="57737039" type="truck_euro6"/>
    <trip id="bgt_164" depart="1968.00" from="-156803987" to="-113607625#0" type="truck_euro6"/>
    <trip id="bgt_165" depart="1980.00" from="1212551598#2" to="314035994#4" type="truck_euro6"/>
    <trip id="bgt_166" depart="1992.00" from="237132920#1" to="29363538#8" type="truck_euro6"/>
    <trip id="bgt_167" depart="2004.00" from="1212551598#2" to="23917399#0" type="truck_euro6"/>
    <trip id="bgt_168" depart="2016.00" from="-398287564#1" to="-29448148#0" type="truck_euro6"/>
    <trip id="bgt_169" depart="2028.00" from="1266487057" to="-1212551598#0" type="truck_euro6"/>
    <trip id="bgt_170" depart="2040.00" from="-156803992#1" to="29363538#5" type="truck_euro6"/>
    <trip id="bgt_171" depart="2052.00" from="-26242017#5" to="29363538#13" type="truck_euro6"/>
    <trip id="bgt_172" depart="2064.00" from="29366696#0" to="-57141200#1" type="truck_euro6"/>
    <trip id="bgt_173" depart="2076.00" from="23755645" to="29366728#4" type="truck_euro6"/>
    <trip id="bgt_174" depart="2088.00" from="35145512#0" to="-23755647#1" type="truck_euro6"/>
    <trip id="bgt_175" depart="2100.00" from="-26091447#0" to="-513169636#0" type="truck_euro6"/>
    <trip id="bgt_176" depart="2112.00" from="113607629#0" to="-314035994#1" type="truck_euro6"/>
    <trip id="bgt_177" depart="2124.00" from="-113607629#2" to="191185979#0" type="truck_euro6"/>
    <trip id="bgt_178" depart="2136.00" from="617259948#1" to="-428878586#3" type="truck_euro6"/>
    <trip id="bgt_179" depart="2148.00" from="156803987" to="-513169636#1" type="truck_euro6"/>
    <trip id="bgt_180" depart="2160.00" from="-928782863#1" to="398287564#3" type="truck_euro6"/>
    <trip id="bgt_181" depart="2172.00" from="406853549" to="-156803992#1" type="truck_euro6"/>
    <trip id="bgt_182" depart="2184.00" from="29448148#8" to="-314039227#0" type="truck_euro6"/>
    <trip id="bgt_183" depart="2196.00" from="237132915" to="29366773#3" type="truck_euro6"/>
    <trip id="bgt_184" depart="2208.00" from="237132919#2" to="-558869958#1" type="truck_euro6"/>
    <trip id="bgt_185" depart="2220.00" from="314035994#3" to="-174967686#5" type="truck_euro6"/>
    <trip id="bgt_186" depart="2232.00" from="237132905" to="-558869958#0" type="truck_euro6"/>
    <trip id="bgt_187" depart="2244.00" from="156803977#0" to="324599635" type="truck_euro6"/>
    <trip id="bgt_188" depart="2256.00" from="29366773#1" to="237132911" type="truck_euro6"/>
    <trip id="bgt_189" depart="2268.00" from="1040612423" to="-29366469#2" type="truck_euro6"/>
    <trip id="bgt_190" depart="2280.00" from="-29448148#2" to="558918834#0" type="truck_euro6"/>
    <trip id="bgt_191" depart="2292.00" from="-237132914#1" to="29448148#8" type="truck_euro6"/>
    <trip id="bgt_192" depart="2304.00" from="-428878586#4" to="-428878586#2" type="truck_euro6"/>
    <trip id="bgt_193" depart="2316.00" from="-324599635" to="-156803992#1" type="truck_euro6"/>
    <trip id="bgt_194" depart="2328.00" from="1040612423" to="-26242017#1" type="truck_euro6"/>
    <trip id="bgt_195" depart="2340.00" from="-879391733" to="-314035994#0" type="truck_euro6"/>
    <trip id="bgt_196" depart="2352.00" from="406853538#0" to="428878586#5" type="truck_euro6"/>
    <trip id="bgt_197" depart="2364.00" from="-879391733" to="237132919#2" type="truck_euro6"/>
    <trip id="bgt_198" depart="2376.00" from="45511730#3" to="-398287564#1" type="truck_euro6"/>
    <trip id="bgt_199" depart="2388.00" from="-191185979#2" to="-29366556#1" type="truck_euro6"/>
    <trip id="bgt_200" depart="2400.00" from="-26242023#2" to="23917399#2" type="truck_euro6"/>
    <trip id="bgt_201" depart="2412.00" from="-428878586#1" to="-406853547" type="truck_euro6"/>
    <trip id="bgt_202" depart="2424.00" from="29366773#0" to="-29366469#2" type="truck_euro6"/>
    <trip id="bgt_203" depart="2436.00" from="29366794#2" to="237132915" type="truck_euro6"/>
    <trip id="bgt_204" depart="2448.00" from="-557929943#1" to="314035732" type="truck_euro6"/>
    <trip id="bgt_205" depart="2460.00" from="-398287565" to="398287570#1" type="truck_euro6"/>
    <trip id="bgt_206" depart="2472.00" from="23917399#1" to="558783357#1" type="truck_euro6"/>
    <trip id="bgt_207" depart="2484.00" from="26578873#1" to="29363538#2" type="truck_euro6"/>
    <trip id="bgt_208" depart="2496.00" from="398287564#1" to="513169634#1" type="truck_euro6"/>
    <trip id="bgt_209" depart="2508.00" from="29363538#1" to="878984947#2" type="truck_euro6"/>
    <trip id="bgt_210" depart="2520.00" from="-314035730" to="237132907" type="truck_euro6"/>
    <trip id="bgt_211" depart="2532.00" from="23713931" to="-428878586#3" type="truck_euro6"/>
    <trip id="bgt_212" depart="2544.00" from="-513169636#1" to="-26242017#6" type="truck_euro6"/>
    <trip id="bgt_213" depart="2556.00" from="558918834#0" to="-406853546" type="truck_euro6"/>
    <trip id="bgt_214" depart="2568.00" from="113607644#0" to="406853540" type="truck_euro6"/>
    <trip id="bgt_215" depart="2580.00" from="-26242019#3" to="57116095" type="truck_euro6"/>
    <trip id="bgt_216" depart="2592.00" from="-237132921" to="-1212551598#0" type="truck_euro6"/>
    <trip id="bgt_217" depart="2604.00" from="-406077442#0" to="-406853549" type="truck_euro6"/>
    <trip id="bgt_218" depart="2616.00" from="428878586#2" to="406077442#0" type="truck_euro6"/>
    <trip id="bgt_219" depart="2628.00" from="29363538#8" to="-98788168#0" type="truck_euro6"/>
    <trip id="bgt_220" depart="2640.00" from="156803992#0" to="-29366510#1" type="truck_euro6"/>
    <trip id="bgt_221" depart="2652.00" from="314035994#0" to="-558783357#0" type="truck_euro6"/>
    <trip id="bgt_222" depart="2664.00" from="-29448148#6" to="237132918" type="truck_euro6"/>
    <trip id="bgt_223" depart="2676.00" from="-23917399#2" to="-324877658" type="truck_euro6"/>
    <trip id="bgt_224" depart="2688.00" from="-23755649#1" to="-27191253" type="truck_euro6"/>
    <trip id="bgt_225" depart="2700.00" from="-29366696#2" to="-878984947#0" type="truck_euro6"/>
    <trip id="bgt_226" depart="2712.00" from="-29366696#2" to="-406077442#1" type="truck_euro6"/>
    <trip id="bgt_227" depart="2724.00" from="-29366696#0" to="-29366696#0" type="truck_euro6"/>
    <trip id="bgt_228" depart="2736.00" from="217460932#0" to="-398287570#1" type="truck_euro6"/>
    <trip id="bgt_229" depart="2748.00" from="-428878586#1" to="29366469#1" type="truck_euro6"/>
    <trip id="bgt_230" depart="2760.00" from="-149987609" to="-23917399#0" type="truck_euro6"/>
    <trip id="bgt_231" depart="2772.00" from="314039227#1" to="-928782863#1" type="truck_euro6"/>
    <trip id="bgt_232" depart="2784.00" from="29366510#1" to="-237132924" type="truck_euro6"/>
    <trip id="bgt_233" depart="2796.00" from="150798464#0" to="314039227#1" type="truck_euro6"/>
    <trip id="bgt_234" depart="2808.00" from="-398287564#4" to="29366469#1" type="truck_euro6"/>
    <trip id="bgt_235" depart="2820.00" from="217460932#0" to="-558869962#0" type="truck_euro6"/>
    <trip id="bgt_236" depart="2832.00" from="98788168#1" to="-558869958#0" type="truck_euro6"/>
    <trip id="bgt_237" depart="2844.00" from="113607637#0" to="237132905" type="truck_euro6"/>
    <trip id="bgt_238" depart="2856.00" from="-314039227#3" to="314035994#4" type="truck_euro6"/>
    <trip id="bgt_239" depart="2868.00" from="156803987" to="883759436" type="truck_euro6"/>
    <trip id="bgt_240" depart="2880.00" from="928782870" to="314039202#0" type="truck_euro6"/>
    <trip id="bgt_241" depart="2892.00" from="102408516" to="-617259948#3" type="truck_euro6"/>
    <trip id="bgt_242" depart="2904.00" from="150798464#1" to="-1283838781" type="truck_euro6"/>
    <trip id="bgt_243" depart="2916.00" from="-237132921" to="513169636#0" type="truck_euro6"/>
    <trip id="bgt_244" depart="2928.00" from="23755647#1" to="428878586#1" type="truck_euro6"/>
    <trip id="bgt_245" depart="2940.00" from="-156803992#0" to="-314039227#0" type="truck_euro6"/>
    <trip id="bgt_246" depart="2952.00" from="29366773#1" to="-113607629#1" type="truck_euro6"/>
    <trip id="bgt_247" depart="2964.00" from="-206900065#1" to="-406853545" type="truck_euro6"/>
    <trip id="bgt_248" depart="2976.00" from="-26242017#5" to="-23917399#1" type="truck_euro6"/>
    <trip id="bgt_249" depart="2988.00" from="617259948#4" to="237132921" type="truck_euro6"/>
    <trip id="bgt_250" depart="3000.00" from="-1350860316#1" to="406853542" type="truck_euro6"/>
    <trip id="bgt_251" depart="3012.00" from="-29366510#1" to="1221422824#4" type="truck_euro6"/>
    <trip id="bgt_252" depart="3024.00" from="174967686#1" to="-23755649#0" type="truck_euro6"/>
    <trip id="bgt_253" depart="3036.00" from="1266487057" to="-1352477107" type="truck_euro6"/>
    <trip id="bgt_254" depart="3048.00" from="-26289473#1" to="428878586#3" type="truck_euro6"/>
    <trip id="bgt_255" depart="3060.00" from="29448148#7" to="156803977#1" type="truck_euro6"/>
    <trip id="bgt_256" depart="3072.00" from="23755649#0" to="398287570#0" type="truck_euro6"/>
    <trip id="bgt_257" depart="3084.00" from="-23755649#0" to="1350860316#1" type="truck_euro6"/>
    <trip id="bgt_258" depart="3096.00" from="-237132923" to="-237132919#3" type="truck_euro6"/>
    <trip id="bgt_259" depart="3108.00" from="-1350872887" to="-29363538#13" type="truck_euro6"/>
    <trip id="bgt_260" depart="3120.00" from="-428878586#4" to="237132907" type="truck_euro6"/>
    <trip id="bgt_261" depart="3132.00" from="324877656" to="406853545" type="truck_euro6"/>
    <trip id="bgt_262" depart="3144.00" from="26242017#6" to="149987608" type="truck_euro6"/>
    <trip id="bgt_263" depart="3156.00" from="428878586#1" to="-26242017#0" type="truck_euro6"/>
    <trip id="bgt_264" depart="3168.00" from="-206900065#1" to="29448148#8" type="truck_euro6"/>
    <trip id="bgt_265" depart="3180.00" from="23656293" to="-29363538#10" type="truck_euro6"/>
    <trip id="bgt_266" depart="3192.00" from="-428878586#3" to="-314035994#2" type="truck_euro6"/>
    <trip id="bgt_267" depart="3204.00" from="-878811132" to="-879391733" type="truck_euro6"/>
    <trip id="bgt_268" depart="3216.00" from="-557929943#0" to="29366794#0" type="truck_euro6"/>
    <trip id="bgt_269" depart="3228.00" from="29448148#2" to="191185979#3" type="truck_euro6"/>
    <trip id="bgt_270" depart="3240.00" from="113607629#4" to="-314035731" type="truck_euro6"/>
    <trip id="bgt_271" depart="3252.00" from="29366288#0" to="928782863#0" type="truck_euro6"/>
    <trip id="bgt_272" depart="3264.00" from="-29366288#1" to="26242017#5" type="truck_euro6"/>
    <trip id="bgt_273" depart="3276.00" from="-1212551598#3" to="174967686#3" type="truck_euro6"/>
    <trip id="bgt_274" depart="3288.00" from="-26289476" to="-26289472#2" type="truck_euro6"/>
    <trip id="bgt_275" depart="3300.00" from="206900065#0" to="237132920#1" type="truck_euro6"/>
    <trip id="bgt_276" depart="3312.00" from="26091447#0" to="1212551598#3" type="truck_euro6"/>
    <trip id="bgt_277" depart="3324.00" from="-1350860316#0" to="29366510#0" type="truck_euro6"/>
    <trip id="bgt_278" depart="3336.00" from="29448148#8" to="314035994#3" type="truck_euro6"/>
    <trip id="bgt_279" depart="3348.00" from="-26289472#1" to="-23711988#1" type="truck_euro6"/>
    <trip id="bgt_280" depart="3360.00" from="237132907" to="174967684#1" type="truck_euro6"/>
    <trip id="bgt_281" depart="3372.00" from="-26242019#3" to="558918832#1" type="truck_euro6"/>
    <trip id="bgt_282" depart="3384.00" from="878984947#4" to="406853542" type="truck_euro6"/>
    <trip id="bgt_283" depart="3396.00" from="113607629#0" to="-314035994#0" type="truck_euro6"/>
    <trip id="bgt_284" depart="3408.00" from="-27190252#1" to="314035732" type="truck_euro6"/>
    <trip id="bgt_285" depart="3420.00" from="24609247#5" to="-29448148#5" type="truck_euro6"/>
    <trip id="bgt_286" depart="3432.00" from="-558918832#1" to="-79571356" type="truck_euro6"/>
    <trip id="bgt_287" depart="3444.00" from="26242019#0" to="113607629#2" type="truck_euro6"/>
    <trip id="bgt_288" depart="3456.00" from="237132920#1" to="-237132920#1" type="truck_euro6"/>
    <trip id="bgt_289" depart="3468.00" from="26091447#0" to="-29448148#3" type="truck_euro6"/>
    <trip id="bgt_290" depart="3480.00" from="406853547" to="-29363538#13" type="truck_euro6"/>
    <trip id="bgt_291" depart="3492.00" from="-513169636#0" to="156803982#1" type="truck_euro6"/>
    <trip id="bgt_292" depart="3504.00" from="428878586#5" to="-26578873#2" type="truck_euro6"/>
    <trip id="bgt_293" depart="3516.00" from="29366469#0" to="26091447#1" type="truck_euro6"/>
    <trip id="bgt_294" depart="3528.00" from="29366696#1" to="113607625#0" type="truck_euro6"/>
    <trip id="bgt_295" depart="3540.00" from="102408516" to="-406646743#0" type="truck_euro6"/>
    <trip id="bgt_296" depart="3552.00" from="113607637#0" to="-29366773#1" type="truck_euro6"/>
    <trip id="bgt_297" depart="3564.00" from="-26242023#2" to="1212551598#3" type="truck_euro6"/>
    <trip id="bgt_298" depart="3576.00" from="-26242405#1" to="1212043112" type="truck_euro6"/>
    <trip id="bgt_299" depart="3588.00" from="191185979#3" to="-314039227#3" type="truck_euro6"/>
    <trip id="bgt_300" depart="3600.00" from="-26242017#3" to="217461037#1-AddedOnRampEdge" type="truck_euro6"/>
    <trip id="bgt_301" depart="3612.00" from="324877657" to="-29366288#1" type="truck_euro6"/>
    <trip id="bgt_302" depart="3624.00" from="406077442#0" to="24609247#1" type="truck_euro6"/>
    <trip id="bgt_303" depart="3636.00" from="-314035994#3" to="-29363538#1" type="truck_euro6"/>
    <trip id="bgt_304" depart="3648.00" from="314035994#1" to="-314035994#3" type="truck_euro6"/>
    <trip id="bgt_305" depart="3660.00" from="-113607629#3" to="398287564#3" type="truck_euro6"/>