<?xml version="1.0" encoding="UTF-8"?>
<additional>
  <!-- FULL DIESEL heavy-duty trucks -->
  <vType id="truck_euro6"
         vClass="truck"
         accel="1.0"
         decel="3.0"
         sigma="0.5"
         length="12.0"
         minGap="3.0"
         maxSpeed="22.22"
         emissionClass="HBEFA3/HDV"
         guiShape="truck"/>

  <!-- Passenger cars -->
  <vType id="car_default"
         vClass="passenger"
         accel="2.6"
         decel="4.5"
         sigma="0.5"
         length="4.5"
         minGap="2.5"
         maxSpeed="13.89"
         emissionClass="HBEFA3/PC_G_EU4"
         guiShape="passenger"/>
</additional>
